
     RDKit          3D

 21 23  0  0  0  0  0  0  0  0999 V2000
    5.6405   58.6268   21.8866 N   0  0  0  0  0  0  0  0  0  0  0  0
   -0.5475   49.6362   23.0532 N   0  0  0  0  0  0  0  0  0  0  0  0
    4.0541   55.2145   22.5092 N   0  0  0  0  0  0  0  0  0  0  0  0
    4.1528   56.7717   21.9830 C   0  0  0  0  0  0  0  0  0  0  0  0
    5.2395   60.4906   21.1149 C   0  0  0  0  0  0  0  0  0  0  0  0
    6.9487   61.8317   21.2830 C   0  0  0  0  0  0  0  0  0  0  0  0
    6.1823   59.8793   21.6952 C   0  0  0  0  0  0  0  0  0  0  0  0
    3.1194   57.0878   21.5457 O   0  0  0  0  0  0  0  0  0  0  0  0
    3.8058   53.3674   22.9511 C   0  0  0  0  0  0  0  0  0  0  0  0
    5.3414   62.6569   20.3173 O   0  0  0  0  0  0  0  0  0  0  0  0
    2.4936   53.1341   22.4203 C   0  0  0  0  0  0  0  0  0  0  0  0
    7.8119   62.8948   21.3599 O   0  0  0  0  0  0  0  0  0  0  0  0
    2.7264   54.4890   21.9339 C   0  0  0  0  0  0  0  0  0  0  0  0
    5.3011   54.6679   23.4663 C   0  0  0  0  0  0  0  0  0  0  0  0
   -0.1392   50.9871   23.1089 C   0  0  0  0  0  0  0  0  0  0  0  0
    4.1138   59.8829   20.7450 C   0  0  0  0  0  0  0  0  0  0  0  0
    2.6195   60.3565   20.8585 C   0  0  0  0  0  0  0  0  0  0  0  0
    4.6510   58.2181   21.5905 C   0  0  0  0  0  0  0  0  0  0  0  0
    5.7780   61.7461   20.8083 C   0  0  0  0  0  0  0  0  0  0  0  0
    7.5552   60.4675   22.0569 C   0  0  0  0  0  0  0  0  0  0  0  0
    0.3514   51.8960   21.1035 C   0  0  0  0  0  0  0  0  0  0  0  0
  1  7  1  0
  1 18  1  0
  2 15  1  0
  3  4  1  0
  3 13  1  0
  3 14  1  0
  4  8  2  0
  4 18  1  0
  5  7  1  0
  5 16  1  0
  5 19  1  0
  6 12  1  0
  6 19  1  0
  6 20  1  0
  7 20  1  0
  9 11  1  0
  9 14  1  0
 10 19  1  0
 11 13  1  0
 11 21  1  0
 15 21  1  0
 16 17  1  0
 16 18  1  0
M  END
$$$$

     RDKit          3D

 23 24  0  0  0  0  0  0  0  0999 V2000
    3.2416   57.1381   21.5886 O   0  0  0  0  0  0  0  0  0  0  0  0
    2.0831   53.2253   22.5055 C   0  0  0  0  0  0  0  0  0  0  0  0
    5.7066   61.6226   20.7853 C   0  0  0  0  0  0  0  0  0  0  0  0
    3.4574   59.9230   20.4978 C   0  0  0  0  0  0  0  0  0  0  0  0
    6.9687   61.7712   21.2508 C   0  0  0  0  0  0  0  0  0  0  0  0
    3.0192   52.2094   22.6789 C   0  0  0  0  0  0  0  0  0  0  0  0
    0.7136   51.3216   21.8964 C   0  0  0  0  0  0  0  0  0  0  0  0
    4.9155   58.7518   21.7218 C   0  0  0  0  0  0  0  0  0  0  0  0
    4.8364   54.3439   23.2685 C   0  0  0  0  0  0  0  0  0  0  0  0
    4.6339   59.9968   21.1349 C   0  0  0  0  0  0  0  0  0  0  0  0
    7.3130   60.4702   22.0323 C   0  0  0  0  0  0  0  0  0  0  0  0
    4.0947   56.3630   22.2230 C   0  0  0  0  0  0  0  0  0  0  0  0
    3.6862   54.9433   22.3144 C   0  0  0  0  0  0  0  0  0  0  0  0
   -0.0786   49.4314   23.0763 C   0  0  0  0  0  0  0  0  0  0  0  0
    4.9001   57.7536   22.7493 C   0  0  0  0  0  0  0  0  0  0  0  0
    2.2479   60.3928   21.2192 C   0  0  0  0  0  0  0  0  0  0  0  0
    4.2132   52.8038   23.1366 C   0  0  0  0  0  0  0  0  0  0  0  0
    1.2513   52.5313   22.0643 O   0  0  0  0  0  0  0  0  0  0  0  0
    0.0645   51.1934   20.7575 N   0  0  0  0  0  0  0  0  0  0  0  0
    6.2364   59.5447   21.9298 C   0  0  0  0  0  0  0  0  0  0  0  0
   -0.0751   51.0060   23.2914 C   0  0  0  0  0  0  0  0  0  0  0  0
    5.2772   62.7588   20.1777 O   0  0  0  0  0  0  0  0  0  0  0  0
    2.5461   54.2029   22.0494 C   0  0  0  0  0  0  0  0  0  0  0  0
  1 12  1  0
  2  6  2  0
  2 18  1  0
  2 23  1  0
  3  5  2  0
  3 10  1  0
  3 22  1  0
  4 10  1  0
  4 16  1  0
  5 11  1  0
  6 17  1  0
  7 18  1  0
  7 19  1  0
  7 21  1  0
  8 10  2  0
  8 15  1  0
  8 20  1  0
  9 13  1  0
  9 17  2  0
 11 20  2  0
 12 13  1  0
 12 15  1  0
 13 23  2  0
 14 21  1  0
M  END
$$$$

     RDKit          3D

 25 27  0  0  0  0  0  0  0  0999 V2000
    1.1866   52.2596   21.4406 C   0  0  0  0  0  0  0  0  0  0  0  0
    3.9396   55.6920   21.5097 C   0  0  0  0  0  0  0  0  0  0  0  0
    6.8265   59.8986   20.9729 C   0  0  0  0  0  0  0  0  0  0  0  0
    4.4381   58.9304   21.2565 C   0  0  0  0  0  0  0  0  0  0  0  0
    1.9486   52.6662   22.5462 N   0  0  0  0  0  0  0  0  0  0  0  0
    4.2534   56.5266   20.2049 C   0  0  0  0  0  0  0  0  0  0  0  0
    4.2546   61.4307   22.6481 N   0  0  0  0  0  0  0  0  0  0  0  0
    2.5931   58.5030   22.2472 C   0  0  0  0  0  0  0  0  0  0  0  0
    5.3228   61.2344   21.8592 C   0  0  0  0  0  0  0  0  0  0  0  0
    4.9524   57.9145   20.0672 C   0  0  0  0  0  0  0  0  0  0  0  0
    0.1852   53.1831   21.3637 O   0  0  0  0  0  0  0  0  0  0  0  0
    2.0033   51.5792   24.8237 C   0  0  0  0  0  0  0  0  0  0  0  0
    4.6976   55.6563   19.2797 O   0  0  0  0  0  0  0  0  0  0  0  0
    3.7702   54.9753   23.7554 C   0  0  0  0  0  0  0  0  0  0  0  0
    7.4263   61.1520   21.6557 C   0  0  0  0  0  0  0  0  0  0  0  0
    0.8399   50.7187   21.3820 C   0  0  0  0  0  0  0  0  0  0  0  0
    6.3042   58.6689   20.1129 C   0  0  0  0  0  0  0  0  0  0  0  0
    1.5592   53.0525   23.9389 C   0  0  0  0  0  0  0  0  0  0  0  0
    3.0619   54.4143   21.6155 C   0  0  0  0  0  0  0  0  0  0  0  0
    4.4681   56.0293   22.6914 C   0  0  0  0  0  0  0  0  0  0  0  0
    6.0765   61.4593   22.3675 C   0  0  0  0  0  0  0  0  0  0  0  0
    5.1337   59.9834   21.6886 C   0  0  0  0  0  0  0  0  0  0  0  0
    6.2618   62.5922   22.8971 O   0  0  0  0  0  0  0  0  0  0  0  0
    2.9903   59.1274   21.2733 C   0  0  0  0  0  0  0  0  0  0  0  0
    2.7179   53.9359   22.5317 C   0  0  0  0  0  0  0  0  0  0  0  0
  1  5  1  0
  1 11  1  0
  1 16  1  0
  2  6  1  0
  2 19  1  0
  2 20  1  0
  3 15  1  0
  3 17  1  0
  3 22  1  0
  4 10  1  0
  4 22  1  0
  4 24  1  0
  5 18  1  0
  5 25  1  0
  6 10  1  0
  6 13  1  0
  7  9  1  0
  8 24  1  0
  9 21  1  0
  9 22  1  0
 10 17  1  0
 12 18  1  0
 14 20  1  0
 14 25  1  0
 15 21  1  0
 19 25  1  0
 21 23  1  0
M  END
$$$$

     RDKit          3D

 23 24  0  0  0  0  0  0  0  0999 V2000
    1.2614   52.4532   21.7320 C   0  0  0  0  0  0  0  0  0  0  0  0
    7.2813   59.6427   20.9021 C   0  0  0  0  0  0  0  0  0  0  0  0
    4.8862   55.8430   19.3302 O   0  0  0  0  0  0  0  0  0  0  0  0
    4.3268   55.1491   23.5698 C   0  0  0  0  0  0  0  0  0  0  0  0
    1.2677   52.6765   24.1228 C   0  0  0  0  0  0  0  0  0  0  0  0
    4.1440   55.9128   21.4106 C   0  0  0  0  0  0  0  0  0  0  0  0
    3.0504   54.2404   22.8853 N   0  0  0  0  0  0  0  0  0  0  0  0
    0.8310   51.0953   21.6797 N   0  0  0  0  0  0  0  0  0  0  0  0
    6.5826   58.2591   20.3209 C   0  0  0  0  0  0  0  0  0  0  0  0
    1.9706   53.1411   22.9101 C   0  0  0  0  0  0  0  0  0  0  0  0
    5.0650   57.9267   20.2972 C   0  0  0  0  0  0  0  0  0  0  0  0
    2.5056   58.2790   22.5375 C   0  0  0  0  0  0  0  0  0  0  0  0
    4.3005   61.2572   22.4713 O   0  0  0  0  0  0  0  0  0  0  0  0
    4.6745   56.1966   22.5790 C   0  0  0  0  0  0  0  0  0  0  0  0
    5.9295   61.5291   22.0746 C   0  0  0  0  0  0  0  0  0  0  0  0
    6.3594   62.8042   22.9010 O   0  0  0  0  0  0  0  0  0  0  0  0
    4.8000   59.3020   21.1902 C   0  0  0  0  0  0  0  0  0  0  0  0
    1.8034   51.3115   24.6976 C   0  0  0  0  0  0  0  0  0  0  0  0
    3.2646   59.0829   21.3935 C   0  0  0  0  0  0  0  0  0  0  0  0
    3.3385   54.8309   21.4926 C   0  0  0  0  0  0  0  0  0  0  0  0
    4.4136   56.4218   20.2726 C   0  0  0  0  0  0  0  0  0  0  0  0
    0.1302   53.1297   21.4890 O   0  0  0  0  0  0  0  0  0  0  0  0
    5.3880   60.5608   21.8386 C   0  0  0  0  0  0  0  0  0  0  0  0
  1  8  1  0
  1 10  1  0
  1 22  1  0
  2  9  1  0
  2 23  1  0
  3 21  1  0
  4  7  1  0
  4 14  1  0
  5 10  1  0
  5 18  1  0
  6 14  1  0
  6 20  1  0
  6 21  1  0
  7 10  1  0
  7 20  1  0
  9 11  1  0
 11 17  1  0
 11 21  1  0
 12 19  1  0
 13 23  1  0
 15 16  1  0
 15 23  1  0
 17 19  1  0
 17 23  1  0
M  END
$$$$
