
     RDKit          3D

 28 29  0  0  0  0  0  0  0  0999 V2000
    2.7356   57.9596   22.2075 C   0  0  0  0  0  0  0  0  0  0  0  0
    4.9414   59.2067   20.0204 C   0  0  0  0  0  0  0  0  0  0  0  0
    1.2214   52.6803   21.1409 S   0  0  1  0  0  6  0  0  0  0  0  0
    3.1997   57.0874   23.0485 N   0  0  0  0  0  0  0  0  0  0  0  0
    4.9024   59.3693   22.4086 C   0  0  0  0  0  0  0  0  0  0  0  0
    1.1004   54.5420   24.7403 C   0  0  0  0  0  0  0  0  0  0  0  0
    1.8748   55.6694   24.4937 C   0  0  0  0  0  0  0  0  0  0  0  0
    2.8093   50.7474   22.2442 C   0  0  0  0  0  0  0  0  0  0  0  0
    2.2324   54.9990   22.2093 C   0  0  0  0  0  0  0  0  0  0  0  0
    1.1782   53.4398   19.9088 O   0  0  0  0  0  0  0  0  0  0  0  0
    3.5256   59.3646   20.4012 N   0  0  0  0  0  0  0  0  0  0  0  0
    3.8741   52.3537   20.5955 C   0  0  0  0  0  0  0  0  0  0  0  0
    4.3431   59.8338   24.8516 C   0  0  0  0  0  0  0  0  0  0  0  0
    0.1136   51.8299   21.5237 O   0  0  0  0  0  0  0  0  0  0  0  0
    0.8917   53.6243   23.7118 C   0  0  0  0  0  0  0  0  0  0  0  0
    2.6455   51.7498   21.1608 N   0  0  0  0  0  0  0  0  0  0  0  0
    3.4601   59.2602   21.8830 C   0  0  0  0  0  0  0  0  0  0  0  0
    5.6888   59.8510   21.1832 C   0  0  0  0  0  0  0  0  0  0  0  0
    8.0113   60.1124   20.0906 C   0  0  0  0  0  0  0  0  0  0  0  0
    4.7182   51.3044   19.8891 C   0  0  0  0  0  0  0  0  0  0  0  0
    5.2475   57.7281   19.7695 C   0  0  0  0  0  0  0  0  0  0  0  0
    2.4266   55.9268   23.2313 C   0  0  0  0  0  0  0  0  0  0  0  0
    3.7391   51.1898   23.3611 C   0  0  0  0  0  0  0  0  0  0  0  0
    5.0483   60.3308   23.5981 C   0  0  0  0  0  0  0  0  0  0  0  0
    1.4804   53.8451   22.4595 C   0  0  0  0  0  0  0  0  0  0  0  0
    7.6909   58.8251   22.0712 O   0  0  0  0  0  0  0  0  0  0  0  0
    2.1045   56.5482   25.5180 O   0  0  0  0  0  0  0  0  0  0  0  0
    7.1746   59.5203   21.1975 C   0  0  0  0  0  0  0  0  0  0  0  0
  1  4  2  3
  1 17  1  0
  2 11  1  0
  2 18  1  0
  2 21  1  0
  3 10  2  0
  3 14  2  0
  3 16  1  6
  3 25  1  0
  4 22  1  0
  5 17  1  0
  5 18  1  0
  5 24  1  0
  6  7  4  0
  6 15  4  0
  7 22  4  0
  7 27  1  0
  8 16  1  0
  8 23  1  0
  9 22  4  0
  9 25  4  0
 11 17  1  0
 12 16  1  0
 12 20  1  0
 13 24  1  0
 15 25  4  0
 18 28  1  0
 19 28  1  0
 26 28  2  0
M  END
$$$$

     RDKit          3D

 28 29  0  0  0  0  0  0  0  0999 V2000
    5.3292   57.8549   22.0556 C   0  0  0  0  0  0  0  0  0  0  0  0
    4.3118   56.6916   21.9668 C   0  0  0  0  0  0  0  0  0  0  0  0
    5.6647   61.2361   20.4674 C   0  0  0  0  0  0  0  0  0  0  0  0
    4.7274   59.2211   21.7244 C   0  0  0  0  0  0  0  0  0  0  0  0
    1.3123   51.4037   22.0837 S   0  0  0  0  0  0  0  0  0  0  0  0
    2.5193   56.6220   25.5944 O   0  0  0  0  0  0  0  0  0  0  0  0
    2.0711   54.6824   22.5321 C   0  0  0  0  0  0  0  0  0  0  0  0
    6.9763   59.0417   20.8106 C   0  0  0  0  0  0  0  0  0  0  0  0
    2.3513   51.6277   20.7938 N   0  0  0  0  0  0  0  0  0  0  0  0
    2.5663   55.6237   23.4301 C   0  0  0  0  0  0  0  0  0  0  0  0
    4.3996   60.0444   24.1690 C   0  0  0  0  0  0  0  0  0  0  0  0
    4.1857   55.9900   20.9672 O   0  0  0  0  0  0  0  0  0  0  0  0
    1.0034   54.8179   25.1275 C   0  0  0  0  0  0  0  0  0  0  0  0
    1.8187   51.5450   19.4223 C   0  0  0  0  0  0  0  0  0  0  0  0
    3.7308   51.1172   20.8637 C   0  0  0  0  0  0  0  0  0  0  0  0
    0.5595   52.8931   22.0447 O   0  0  0  0  0  0  0  0  0  0  0  0
    0.5197   53.8733   24.2245 C   0  0  0  0  0  0  0  0  0  0  0  0
    2.0216   55.6812   24.7250 C   0  0  0  0  0  0  0  0  0  0  0  0
    6.3682   57.7296   21.0186 N   0  0  0  0  0  0  0  0  0  0  0  0
    6.8719   62.1252   20.1900 C   0  0  0  0  0  0  0  0  0  0  0  0
    1.5740   50.1218   18.9297 C   0  0  0  0  0  0  0  0  0  0  0  0
    3.7973   59.8306   22.7871 C   0  0  0  0  0  0  0  0  0  0  0  0
    5.9818   60.0623   21.4041 C   0  0  0  0  0  0  0  0  0  0  0  0
    8.3516   59.1137   21.4711 C   0  0  0  0  0  0  0  0  0  0  0  0
    3.5888   56.5488   23.1388 N   0  0  0  0  0  0  0  0  0  0  0  0
    1.0666   53.7999   22.9415 C   0  0  0  0  0  0  0  0  0  0  0  0
    4.5551   51.7912   21.9577 C   0  0  0  0  0  0  0  0  0  0  0  0
    6.4885   63.2183   19.3663 O   0  0  0  0  0  0  0  0  0  0  0  0
  1  2  1  0
  1  4  1  0
  1 19  1  0
  2 12  2  0
  2 25  1  0
  3 20  1  0
  3 23  1  0
  4 22  1  0
  4 23  1  0
  5  9  1  0
  5 16  1  0
  6 18  1  0
  7 10  4  0
  7 26  4  0
  8 19  1  0
  8 23  1  0
  8 24  1  0
  9 14  1  0
  9 15  1  0
 10 18  4  0
 10 25  1  0
 11 22  1  0
 13 17  4  0
 13 18  4  0
 14 21  1  0
 15 27  1  0
 16 26  1  0
 17 26  4  0
 20 28  1  0
M  END
$$$$

     RDKit          3D

 30 31  0  0  0  0  0  0  0  0999 V2000
    4.6547   56.3082   21.9629 C   0  0  0  0  0  0  0  0  0  0  0  0
    1.6536   55.2712   22.4824 C   0  0  0  0  0  0  0  0  0  0  0  0
    5.6128   57.5115   21.8839 C   0  0  0  0  0  0  0  0  0  0  0  0
    6.3944   59.6125   19.0897 C   0  0  0  0  0  0  0  0  0  0  0  0
    7.3487   62.0786   21.4202 C   0  0  0  0  0  0  0  0  0  0  0  0
    6.7628   59.0197   20.4457 C   0  0  0  0  0  0  0  0  0  0  0  0
    2.2643   52.2954   21.5995 N   0  0  0  0  0  0  0  0  0  0  0  0
    0.6632   54.1430   22.8176 C   0  0  0  0  0  0  0  0  0  0  0  0
    1.2102   54.6816   25.2327 C   0  0  0  0  0  0  0  0  0  0  0  0
    6.0676   61.2617   21.5825 C   0  0  0  0  0  0  0  0  0  0  0  0
    6.2294   59.7531   21.6884 C   0  0  0  0  0  0  0  0  0  0  0  0
    2.5925   59.6228   22.3412 C   0  0  0  0  0  0  0  0  0  0  0  0
    2.9142   55.2150   23.3472 C   0  0  0  0  0  0  0  0  0  0  0  0
    2.9762   51.7132   19.2743 C   0  0  0  0  0  0  0  0  0  0  0  0
    3.1891   55.9773   25.6296 O   0  0  0  0  0  0  0  0  0  0  0  0
    0.6512   52.8206   21.5844 S   0  0  0  0  0  6  0  0  0  0  0  0
    0.8361   53.5895   24.2408 C   0  0  0  0  0  0  0  0  0  0  0  0
    0.3587   53.4280   20.3044 O   0  0  0  0  0  0  0  0  0  0  0  0
    3.9745   50.9496   22.8045 C   0  0  0  0  0  0  0  0  0  0  0  0
    3.1186   52.6774   20.4400 C   0  0  0  0  0  0  0  0  0  0  0  0
    6.1736   57.6769   20.5295 N   0  0  0  0  0  0  0  0  0  0  0  0
    5.0261   58.9075   22.1605 C   0  0  0  0  0  0  0  0  0  0  0  0
    7.0691   63.4235   21.0675 O   0  0  0  0  0  0  0  0  0  0  0  0
   -0.1829   51.7564   22.1026 O   0  0  0  0  0  0  0  0  0  0  0  0
    3.8164   56.3200   23.0550 N   0  0  0  0  0  0  0  0  0  0  0  0
    4.6754   55.3715   21.1673 O   0  0  0  0  0  0  0  0  0  0  0  0
    3.7041   59.1755   21.3982 C   0  0  0  0  0  0  0  0  0  0  0  0
    2.5580   50.9952   22.2541 C   0  0  0  0  0  0  0  0  0  0  0  0
    2.5077   55.3427   24.8204 C   0  0  0  0  0  0  0  0  0  0  0  0
    4.9864   61.8399   21.7065 O   0  0  0  0  0  0  0  0  0  0  0  0
  1  3  1  0
  1 25  1  0
  1 26  2  0
  2  8  1  0
  2 13  1  0
  3 21  1  0
  3 22  1  0
  4  6  1  0
  5 10  1  0
  5 23  1  0
  6 11  1  0
  6 21  1  0
  7 16  1  0
  7 20  1  0
  7 28  1  0
  8 16  1  0
  8 17  1  0
  9 17  1  0
  9 29  1  0
 10 11  1  0
 10 30  2  0
 11 22  1  0
 12 27  1  0
 13 25  1  0
 13 29  1  0
 14 20  1  0
 15 29  2  0
 16 18  2  0
 16 24  2  0
 19 28  1  0
 22 27  1  0
M  END
$$$$

     RDKit          3D

 29 30  0  0  0  0  0  0  0  0999 V2000
    1.5430   53.6145   23.0089 C   0  0  0  0  0  0  0  0  0  0  0  0
    5.8102   58.3583   22.8377 N   0  0  0  0  0  0  0  0  0  0  0  0
    0.5196   52.6583   21.9112 S   0  0  0  0  0  6  0  0  0  0  0  0
    4.3053   56.7714   21.5823 C   0  0  0  0  0  0  0  0  0  0  0  0
    3.1043   55.1519   24.7096 C   0  0  0  0  0  0  0  0  0  0  0  0
    6.4585   59.6571   22.5807 C   0  0  0  0  0  0  0  0  0  0  0  0
    6.4312   60.9851   20.4737 C   0  0  0  0  0  0  0  0  0  0  0  0
    2.2194   50.5181   21.8498 C   0  0  0  0  0  0  0  0  0  0  0  0
    5.2587   57.9767   21.5061 C   0  0  0  0  0  0  0  0  0  0  0  0
    3.1486   59.5311   21.3197 C   0  0  0  0  0  0  0  0  0  0  0  0
    1.5016   53.3738   24.3845 C   0  0  0  0  0  0  0  0  0  0  0  0
    7.5272   62.9592   19.5627 O   0  0  0  0  0  0  0  0  0  0  0  0
    4.0070   56.4098   22.8826 N   0  0  0  0  0  0  0  0  0  0  0  0
    2.4431   52.2563   20.0158 C   0  0  0  0  0  0  0  0  0  0  0  0
   -0.0654   53.5805   20.9615 O   0  0  0  0  0  0  0  0  0  0  0  0
    5.5607   60.3675   21.5567 C   0  0  0  0  0  0  0  0  0  0  0  0
    3.6156   50.7871   22.3837 C   0  0  0  0  0  0  0  0  0  0  0  0
    7.0616   60.2999   19.6646 O   0  0  0  0  0  0  0  0  0  0  0  0
    2.6811   51.2542   18.8971 C   0  0  0  0  0  0  0  0  0  0  0  0
    2.7789   59.7024   22.7877 C   0  0  0  0  0  0  0  0  0  0  0  0
   -0.3242   51.8145   22.7336 O   0  0  0  0  0  0  0  0  0  0  0  0
    2.3459   54.6327   22.4815 C   0  0  0  0  0  0  0  0  0  0  0  0
    1.6309   51.6554   21.1007 N   0  0  0  0  0  0  0  0  0  0  0  0
    6.4997   62.5063   20.4287 C   0  0  0  0  0  0  0  0  0  0  0  0
    6.6027   60.4368   23.8804 C   0  0  0  0  0  0  0  0  0  0  0  0
    4.6350   59.2745   20.9805 C   0  0  0  0  0  0  0  0  0  0  0  0
    3.8905   56.2291   20.5621 O   0  0  0  0  0  0  0  0  0  0  0  0
    2.2857   54.1483   25.2354 C   0  0  0  0  0  0  0  0  0  0  0  0
    3.1484   55.3935   23.3300 C   0  0  0  0  0  0  0  0  0  0  0  0
  1  3  1  0
  1 11  4  0
  1 22  4  0
  2  6  1  0
  2  9  1  0
  3 15  2  0
  3 21  2  0
  3 23  1  0
  4  9  1  0
  4 13  1  0
  4 27  2  0
  5 28  4  0
  5 29  4  0
  6 16  1  0
  6 25  1  0
  7 16  1  0
  7 18  2  0
  7 24  1  0
  8 17  1  0
  8 23  1  0
  9 26  1  0
 10 20  1  0
 10 26  1  0
 11 28  4  0
 12 24  1  0
 13 29  1  0
 14 19  1  0
 14 23  1  0
 16 26  1  0
 22 29  4  0
M  END
$$$$

     RDKit          3D

 30 31  0  0  0  0  0  0  0  0999 V2000
    2.5655   55.6955   23.6399 C   0  0  0  0  0  0  0  0  0  0  0  0
    0.8997   52.4406   21.9062 S   0  0  0  0  0  6  0  0  0  0  0  0
    3.1401   57.5781   22.0836 C   0  0  0  0  0  0  0  0  0  0  0  0
    2.7400   55.2606   24.9637 C   0  0  0  0  0  0  0  0  0  0  0  0
    4.4890   59.2389   23.3544 N   0  0  0  0  0  0  0  0  0  0  0  0
    2.3674   53.9769   25.3609 C   0  0  0  0  0  0  0  0  0  0  0  0
    4.4790   51.7376   21.9417 C   0  0  0  0  0  0  0  0  0  0  0  0
    5.7725   59.0897   21.3047 C   0  0  0  0  0  0  0  0  0  0  0  0
    0.4808   51.2484   22.6154 O   0  0  0  0  0  0  0  0  0  0  0  0
    3.8716   59.4609   19.6189 C   0  0  0  0  0  0  0  0  0  0  0  0
    6.9470   59.8579   20.7182 C   0  0  0  0  0  0  0  0  0  0  0  0
    2.4522   59.9678   19.4102 C   0  0  0  0  0  0  0  0  0  0  0  0
    2.9373   57.0236   21.0090 O   0  0  0  0  0  0  0  0  0  0  0  0
    1.6329   53.5354   23.1033 C   0  0  0  0  0  0  0  0  0  0  0  0
    3.5578   59.0709   22.1996 C   0  0  0  0  0  0  0  0  0  0  0  0
    2.9860   56.9994   23.3293 N   0  0  0  0  0  0  0  0  0  0  0  0
    5.8378   58.8966   22.8337 C   0  0  0  0  0  0  0  0  0  0  0  0
    2.2050   52.0208   20.8982 N   0  0  0  0  0  0  0  0  0  0  0  0
    8.1202   61.9458   20.2999 O   0  0  0  0  0  0  0  0  0  0  0  0
   -0.0547   53.2193   21.1466 O   0  0  0  0  0  0  0  0  0  0  0  0
    3.2164   51.0709   21.4238 C   0  0  0  0  0  0  0  0  0  0  0  0
    4.3747   59.6705   21.0518 C   0  0  0  0  0  0  0  0  0  0  0  0
    3.1169   52.3343   18.6195 C   0  0  0  0  0  0  0  0  0  0  0  0
    3.2969   56.1305   25.8662 O   0  0  0  0  0  0  0  0  0  0  0  0
    2.6566   53.0178   19.8976 C   0  0  0  0  0  0  0  0  0  0  0  0
    1.9834   54.8331   22.7142 C   0  0  0  0  0  0  0  0  0  0  0  0
    6.8436   61.3666   20.5277 C   0  0  0  0  0  0  0  0  0  0  0  0
    6.9011   59.6792   23.5972 C   0  0  0  0  0  0  0  0  0  0  0  0
    1.8123   53.1063   24.4234 C   0  0  0  0  0  0  0  0  0  0  0  0
    7.9971   59.2728   20.4290 O   0  0  0  0  0  0  0  0  0  0  0  0
  1  4  4  0
  1 16  1  0
  1 26  4  0
  2  9  2  0
  2 14  1  0
  2 18  1  0
  2 20  2  0
  3 13  2  0
  3 15  1  0
  3 16  1  0
  4  6  4  0
  4 24  1  0
  5 15  1  0
  5 17  1  0
  6 29  4  0
  7 21  1  0
  8 11  1  0
  8 17  1  0
  8 22  1  0
 10 12  1  0
 10 22  1  0
 11 27  1  0
 11 30  2  0
 14 26  4  0
 14 29  4  0
 15 22  1  0
 17 28  1  0
 18 21  1  0
 18 25  1  0
 19 27  1  0
 23 25  1  0
M  END
$$$$

     RDKit          3D

 30 31  0  0  0  0  0  0  0  0999 V2000
    2.7657   55.4226   23.3774 C   0  0  0  0  0  0  0  0  0  0  0  0
    4.3959   56.6654   21.9377 C   0  0  0  0  0  0  0  0  0  0  0  0
    6.6705   63.4913   19.8875 O   0  0  0  0  0  0  0  0  0  0  0  0
    1.2551   53.6462   22.7597 C   0  0  0  0  0  0  0  0  0  0  0  0
    7.9085   59.5782   21.7393 C   0  0  0  0  0  0  0  0  0  0  0  0
    6.4269   57.7570   21.0326 N   0  0  0  0  0  0  0  0  0  0  0  0
    1.4234   54.2990   25.0793 C   0  0  0  0  0  0  0  0  0  0  0  0
    6.2799   62.1572   19.6028 C   0  0  0  0  0  0  0  0  0  0  0  0
    4.5838   59.1785   21.6540 C   0  0  0  0  0  0  0  0  0  0  0  0
    5.7847   61.4343   20.8553 C   0  0  0  0  0  0  0  0  0  0  0  0
    1.7776   51.5743   21.0515 N   0  0  0  0  0  0  0  0  0  0  0  0
    2.8550   52.1015   20.1798 C   0  0  0  0  0  0  0  0  0  0  0  0
    4.2594   56.0438   20.8847 O   0  0  0  0  0  0  0  0  0  0  0  0
    0.5209   52.6327   21.4928 S   0  0  0  0  0  6  0  0  0  0  0  0
    2.1270   50.4754   21.9851 C   0  0  0  0  0  0  0  0  0  0  0  0
    4.7631   60.1225   24.0792 C   0  0  0  0  0  0  0  0  0  0  0  0
    0.2185   53.5024   20.3765 O   0  0  0  0  0  0  0  0  0  0  0  0
    6.8539   59.1283   20.7276 C   0  0  0  0  0  0  0  0  0  0  0  0
    2.9389   56.0690   25.6625 O   0  0  0  0  0  0  0  0  0  0  0  0
    3.3453   51.0331   19.2152 C   0  0  0  0  0  0  0  0  0  0  0  0
   -0.5237   51.8502   22.1225 O   0  0  0  0  0  0  0  0  0  0  0  0
    3.9160   59.9029   22.8337 C   0  0  0  0  0  0  0  0  0  0  0  0
    5.6031   62.0707   21.8932 O   0  0  0  0  0  0  0  0  0  0  0  0
    3.7372   56.4102   23.1235 N   0  0  0  0  0  0  0  0  0  0  0  0
    3.3453   50.7615   22.8458 C   0  0  0  0  0  0  0  0  0  0  0  0
    5.5522   59.9352   20.7189 C   0  0  0  0  0  0  0  0  0  0  0  0
    2.3674   55.2573   24.7145 C   0  0  0  0  0  0  0  0  0  0  0  0
    2.1853   54.6264   22.3940 C   0  0  0  0  0  0  0  0  0  0  0  0
    0.8641   53.4854   24.0945 C   0  0  0  0  0  0  0  0  0  0  0  0
    5.3334   57.8881   22.0289 C   0  0  0  0  0  0  0  0  0  0  0  0
  1 24  1  0
  1 27  4  0
  1 28  4  0
  2 13  2  0
  2 24  1  0
  2 30  1  0
  3  8  1  0
  4 14  1  0
  4 28  4  0
  4 29  4  0
  5 18  1  0
  6 18  1  0
  6 30  1  0
  7 27  4  0
  7 29  4  0
  8 10  1  0
  9 22  1  0
  9 26  1  0
  9 30  1  0
 10 23  2  0
 10 26  1  0
 11 12  1  0
 11 14  1  0
 11 15  1  0
 12 20  1  0
 14 17  2  0
 14 21  2  0
 15 25  1  0
 16 22  1  0
 18 26  1  0
 19 27  1  0
M  END
$$$$

     RDKit          3D

 30 31  0  0  0  0  0  0  0  0999 V2000
    1.5095   55.7736   24.3564 C   0  0  0  0  0  0  0  0  0  0  0  0
    2.9098   57.5443   21.4045 C   0  0  0  0  0  0  0  0  0  0  0  0
    6.9950   59.4898   21.8913 C   0  0  0  0  0  0  0  0  0  0  0  0
    0.7194   52.6396   20.3458 O   0  0  0  0  0  0  0  0  0  0  0  0
    3.6440   51.0736   22.4403 C   0  0  0  0  0  0  0  0  0  0  0  0
    4.4487   59.4006   22.2802 C   0  0  0  0  0  0  0  0  0  0  0  0
    3.7492   59.4079   19.9756 N   0  0  0  0  0  0  0  0  0  0  0  0
    7.6885   60.6660   21.2141 C   0  0  0  0  0  0  0  0  0  0  0  0
    2.3496   57.1837   22.6134 N   0  0  0  0  0  0  0  0  0  0  0  0
    1.3892   53.5761   22.6806 C   0  0  0  0  0  0  0  0  0  0  0  0
    2.9157   51.7471   21.3370 N   0  0  0  0  0  0  0  0  0  0  0  0
    1.0641   54.5549   24.8649 C   0  0  0  0  0  0  0  0  0  0  0  0
    0.6566   51.0983   22.3335 O   0  0  0  0  0  0  0  0  0  0  0  0
    3.2828   59.0491   21.3400 C   0  0  0  0  0  0  0  0  0  0  0  0
    5.2219   59.4477   19.9898 C   0  0  0  0  0  0  0  0  0  0  0  0
    5.1600   61.2193   23.9508 C   0  0  0  0  0  0  0  0  0  0  0  0
    1.5872   56.8799   25.1655 O   0  0  0  0  0  0  0  0  0  0  0  0
    4.6970   51.7118   19.6202 C   0  0  0  0  0  0  0  0  0  0  0  0
    1.8125   54.8081   22.1672 C   0  0  0  0  0  0  0  0  0  0  0  0
    5.6435   59.0124   21.3934 C   0  0  0  0  0  0  0  0  0  0  0  0
    1.2877   52.1707   21.5910 S   0  0  0  0  0  6  0  0  0  0  0  0
    4.3670   60.8869   22.6934 C   0  0  0  0  0  0  0  0  0  0  0  0
    5.8162   58.5686   18.8921 C   0  0  0  0  0  0  0  0  0  0  0  0
    1.0053   53.4465   24.0208 C   0  0  0  0  0  0  0  0  0  0  0  0
    4.5363   52.0019   23.2461 C   0  0  0  0  0  0  0  0  0  0  0  0
    8.8700   61.0390   21.9117 O   0  0  0  0  0  0  0  0  0  0  0  0
    7.5275   58.9426   22.8652 O   0  0  0  0  0  0  0  0  0  0  0  0
    3.7086   52.5707   20.3934 C   0  0  0  0  0  0  0  0  0  0  0  0
    3.1156   56.7940   20.4518 O   0  0  0  0  0  0  0  0  0  0  0  0
    1.8969   55.9108   23.0127 C   0  0  0  0  0  0  0  0  0  0  0  0
  1 12  4  0
  1 17  1  0
  1 30  4  0
  2  9  1  0
  2 14  1  0
  2 29  2  0
  3  8  1  0
  3 20  1  0
  3 27  2  0
  4 21  2  0
  5 11  1  0
  5 25  1  0
  6 14  1  0
  6 20  1  0
  6 22  1  0
  7 14  1  0
  7 15  1  0
  8 26  1  0
  9 30  1  0
 10 19  4  0
 10 21  1  0
 10 24  4  0
 11 21  1  0
 11 28  1  0
 12 24  4  0
 13 21  2  0
 15 20  1  0
 15 23  1  0
 16 22  1  0
 18 28  1  0
 19 30  4  0
M  END
$$$$

     RDKit          3D

 30 31  0  0  0  0  0  0  0  0999 V2000
    7.0016   59.4938   21.8860 C   0  0  0  0  0  0  0  0  0  0  0  0
    2.9181   57.5481   21.3861 C   0  0  0  0  0  0  0  0  0  0  0  0
    1.5030   55.7877   24.3371 C   0  0  0  0  0  0  0  0  0  0  0  0
    4.4535   59.4068   22.2630 C   0  0  0  0  0  0  0  0  0  0  0  0
    1.8969   55.9203   22.9949 C   0  0  0  0  0  0  0  0  0  0  0  0
    2.9222   51.7507   21.3378 N   0  0  0  0  0  0  0  0  0  0  0  0
    3.7650   59.4067   19.9551 N   0  0  0  0  0  0  0  0  0  0  0  0
    0.9996   53.4597   24.0068 C   0  0  0  0  0  0  0  0  0  0  0  0
    4.7116   51.7091   19.6297 C   0  0  0  0  0  0  0  0  0  0  0  0
    5.1575   61.2307   23.9310 C   0  0  0  0  0  0  0  0  0  0  0  0
    1.2932   52.1757   21.5827 S   0  0  0  0  0  6  0  0  0  0  0  0
    3.2920   59.0526   21.3184 C   0  0  0  0  0  0  0  0  0  0  0  0
    2.3520   57.1918   22.5935 N   0  0  0  0  0  0  0  0  0  0  0  0
    7.5293   58.9496   22.8643 O   0  0  0  0  0  0  0  0  0  0  0  0
    0.6581   51.1060   22.3256 O   0  0  0  0  0  0  0  0  0  0  0  0
    7.6988   60.6675   21.2083 C   0  0  0  0  0  0  0  0  0  0  0  0
    1.3899   53.5847   22.6680 C   0  0  0  0  0  0  0  0  0  0  0  0
    3.7199   52.5709   20.3953 C   0  0  0  0  0  0  0  0  0  0  0  0
    5.6524   59.0152   21.3832 C   0  0  0  0  0  0  0  0  0  0  0  0
    5.8368   58.5631   18.8843 C   0  0  0  0  0  0  0  0  0  0  0  0
    4.5337   52.0112   23.2537 C   0  0  0  0  0  0  0  0  0  0  0  0
    3.1281   56.7946   20.4369 O   0  0  0  0  0  0  0  0  0  0  0  0
    1.5773   56.8966   25.1430 O   0  0  0  0  0  0  0  0  0  0  0  0
    1.0548   54.5708   24.8475 C   0  0  0  0  0  0  0  0  0  0  0  0
    4.3704   60.8944   22.6709 C   0  0  0  0  0  0  0  0  0  0  0  0
    0.7310   52.6407   20.3331 O   0  0  0  0  0  0  0  0  0  0  0  0
    3.6450   51.0807   22.4467 C   0  0  0  0  0  0  0  0  0  0  0  0
    5.2376   59.4460   19.9762 C   0  0  0  0  0  0  0  0  0  0  0  0
    1.8162   54.8148   22.1526 C   0  0  0  0  0  0  0  0  0  0  0  0
    8.8771   61.0423   21.9102 O   0  0  0  0  0  0  0  0  0  0  0  0
  1 14  2  0
  1 16  1  0
  1 19  1  0
  2 12  1  0
  2 13  1  0
  2 22  2  0
  3  5  4  0
  3 23  1  0
  3 24  4  0
  4 12  1  0
  4 19  1  0
  4 25  1  0
  5 13  1  0
  5 29  4  0
  6 11  1  0
  6 18  1  0
  6 27  1  0
  7 12  1  0
  7 28  1  0
  8 17  4  0
  8 24  4  0
  9 18  1  0
 10 25  1  0
 11 15  2  0
 11 17  1  0
 11 26  2  0
 16 30  1  0
 17 29  4  0
 19 28  1  0
 20 28  1  0
 21 27  1  0
M  END
$$$$

     RDKit          3D

 29 30  0  0  0  0  0  0  0  0999 V2000
    2.8900   51.7598   21.4073 N   0  0  0  0  0  0  0  0  0  0  0  0
    7.4323   59.0856   22.9959 O   0  0  0  0  0  0  0  0  0  0  0  0
    3.2816   59.0415   21.2446 C   0  0  0  0  0  0  0  0  0  0  0  0
    5.6367   59.0471   21.4184 C   0  0  0  0  0  0  0  0  0  0  0  0
    3.2048   56.7424   20.4681 O   0  0  0  0  0  0  0  0  0  0  0  0
    1.3166   53.6213   22.6466 C   0  0  0  0  0  0  0  0  0  0  0  0
    4.2688   60.9622   22.5559 C   0  0  0  0  0  0  0  0  0  0  0  0
    7.6726   60.7138   21.2589 C   0  0  0  0  0  0  0  0  0  0  0  0
    4.9922   61.3715   23.8325 C   0  0  0  0  0  0  0  0  0  0  0  0
    5.2815   59.4066   19.9756 C   0  0  0  0  0  0  0  0  0  0  0  0
    1.3736   55.8488   24.2974 C   0  0  0  0  0  0  0  0  0  0  0  0
    0.8727   53.5085   23.9660 C   0  0  0  0  0  0  0  0  0  0  0  0
    2.2959   57.2269   22.5615 N   0  0  0  0  0  0  0  0  0  0  0  0
    1.2556   52.2075   21.5671 S   0  0  0  0  0  6  0  0  0  0  0  0
    5.9435   58.4854   18.9539 C   0  0  0  0  0  0  0  0  0  0  0  0
    1.7681   54.8470   22.1420 C   0  0  0  0  0  0  0  0  0  0  0  0
    4.4061   52.0124   23.4016 C   0  0  0  0  0  0  0  0  0  0  0  0
    4.7685   51.6947   19.7989 C   0  0  0  0  0  0  0  0  0  0  0  0
    8.8000   61.1512   22.0062 O   0  0  0  0  0  0  0  0  0  0  0  0
    6.9525   59.5702   21.9632 C   0  0  0  0  0  0  0  0  0  0  0  0
    0.5694   51.1493   22.2804 O   0  0  0  0  0  0  0  0  0  0  0  0
    0.9015   54.6290   24.7914 C   0  0  0  0  0  0  0  0  0  0  0  0
    3.5454   51.0888   22.5571 C   0  0  0  0  0  0  0  0  0  0  0  0
    0.7654   52.6708   20.2866 O   0  0  0  0  0  0  0  0  0  0  0  0
    3.7451   52.5689   20.5066 C   0  0  0  0  0  0  0  0  0  0  0  0
    2.9265   57.5349   21.3661 C   0  0  0  0  0  0  0  0  0  0  0  0
    4.3925   59.4585   22.2234 C   0  0  0  0  0  0  0  0  0  0  0  0
    3.8119   59.3406   19.8903 N   0  0  0  0  0  0  0  0  0  0  0  0
    1.8211   55.9648   22.9736 C   0  0  0  0  0  0  0  0  0  0  0  0
  1 14  1  0
  1 23  1  0
  1 25  1  0
  2 20  2  0
  3 26  1  0
  3 27  1  0
  3 28  1  0
  4 10  1  0
  4 20  1  0
  4 27  1  0
  5 26  2  0
  6 12  4  0
  6 14  1  0
  6 16  4  0
  7  9  1  0
  7 27  1  0
  8 19  1  0
  8 20  1  0
 10 15  1  0
 10 28  1  0
 11 22  4  0
 11 29  4  0
 12 22  4  0
 13 26  1  0
 13 29  1  0
 14 21  2  0
 14 24  2  0
 16 29  4  0
 17 23  1  0
 18 25  1  0
M  END
$$$$

     RDKit          3D

 30 31  0  0  0  0  0  0  0  0999 V2000
    4.7075   58.9482   23.0429 N   0  0  0  0  0  0  0  0  0  0  0  0
    2.8006   50.7400   21.7682 C   0  0  0  0  0  0  0  0  0  0  0  0
    3.2123   56.8199   23.0053 N   0  0  0  0  0  0  0  0  0  0  0  0
    5.3803   61.5428   21.7068 O   0  0  0  0  0  0  0  0  0  0  0  0
    2.1280   54.1281   25.3091 C   0  0  0  0  0  0  0  0  0  0  0  0
    1.9527   54.7461   22.5826 C   0  0  0  0  0  0  0  0  0  0  0  0
    5.1426   58.8825   19.2461 C   0  0  0  0  0  0  0  0  0  0  0  0
    2.5561   52.5551   20.0125 C   0  0  0  0  0  0  0  0  0  0  0  0
    6.4494   59.3833   21.4648 C   0  0  0  0  0  0  0  0  0  0  0  0
    0.6442   52.4095   21.9558 S   0  0  0  0  0  6  0  0  0  0  0  0
    3.1073   56.6632   20.6802 O   0  0  0  0  0  0  0  0  0  0  0  0
    3.1697   56.1941   25.7287 O   0  0  0  0  0  0  0  0  0  0  0  0
    4.1709   58.6040   21.6726 C   0  0  0  0  0  0  0  0  0  0  0  0
    4.1116   51.3095   22.2820 C   0  0  0  0  0  0  0  0  0  0  0  0
    7.3125   62.9767   20.4854 O   0  0  0  0  0  0  0  0  0  0  0  0
    6.1812   58.9593   22.9118 C   0  0  0  0  0  0  0  0  0  0  0  0
    2.6378   55.3263   24.8132 C   0  0  0  0  0  0  0  0  0  0  0  0
    4.1816   60.0124   18.9102 C   0  0  0  0  0  0  0  0  0  0  0  0
    5.3831   58.5653   20.7296 C   0  0  0  0  0  0  0  0  0  0  0  0
    1.4446   53.5371   23.0771 C   0  0  0  0  0  0  0  0  0  0  0  0
    1.9393   51.7342   21.0815 N   0  0  0  0  0  0  0  0  0  0  0  0
    6.8549   59.8013   23.9874 C   0  0  0  0  0  0  0  0  0  0  0  0
    7.4234   61.5635   20.4450 C   0  0  0  0  0  0  0  0  0  0  0  0
    2.9946   51.6851   18.8449 C   0  0  0  0  0  0  0  0  0  0  0  0
    0.0466   51.3581   22.7537 O   0  0  0  0  0  0  0  0  0  0  0  0
    2.5917   55.6368   23.4445 C   0  0  0  0  0  0  0  0  0  0  0  0
   -0.1670   53.2052   21.0594 O   0  0  0  0  0  0  0  0  0  0  0  0
    1.5264   53.2242   24.4373 C   0  0  0  0  0  0  0  0  0  0  0  0
    3.4355   57.2453   21.7090 C   0  0  0  0  0  0  0  0  0  0  0  0
    6.3286   60.8887   21.2629 C   0  0  0  0  0  0  0  0  0  0  0  0
  1 13  1  0
  1 16  1  0
  2 14  1  0
  2 21  1  0
  3 26  1  0
  3 29  1  0
  4 30  2  0
  5 17  4  0
  5 28  4  0
  6 20  4  0
  6 26  4  0
  7 18  1  0
  7 19  1  0
  8 21  1  0
  8 24  1  0
  9 16  1  0
  9 19  1  0
  9 30  1  0
 10 20  1  0
 10 21  1  0
 10 25  2  0
 10 27  2  0
 11 29  2  0
 12 17  1  0
 13 19  1  0
 13 29  1  0
 15 23  1  0
 16 22  1  0
 17 26  4  0
 20 28  4  0
 23 30  1  0
M  END
$$$$
