
     RDKit          3D

 22 23  0  0  0  0  0  0  0  0999 V2000
    3.0885   54.9951   19.7652 C   0  0  0  0  0  0  0  0  0  0  0  0
    1.8390   52.9510   23.9001 C   0  0  0  0  0  0  0  0  0  0  0  0
    4.5402   58.6627   21.0700 C   0  0  0  0  0  0  0  0  0  0  0  0
    5.6242   56.7063   21.9848 C   0  0  0  0  0  0  0  0  0  0  0  0
    3.9359   60.5604   22.5265 N   0  0  0  0  0  0  0  0  0  0  0  0
    2.7368   54.1542   22.0497 C   0  0  0  0  0  0  0  0  0  0  0  0
    5.0350   58.5646   23.4130 C   0  0  0  0  0  0  0  0  0  0  0  0
    4.0004   53.8036   20.0533 C   0  0  0  0  0  0  0  0  0  0  0  0
    4.1068   61.5452   21.4585 C   0  0  0  0  0  0  0  0  0  0  0  0
    4.5111   59.2855   22.3290 C   0  0  0  0  0  0  0  0  0  0  0  0
    3.7400   56.1634   19.0056 C   0  0  0  0  0  0  0  0  0  0  0  0
    1.5749   53.7923   22.7851 O   0  0  0  0  0  0  0  0  0  0  0  0
    3.2431   53.0457   21.1310 C   0  0  0  0  0  0  0  0  0  0  0  0
    2.7831   57.2082   18.8086 O   0  0  0  0  0  0  0  0  0  0  0  0
    0.8099   52.1558   26.0797 C   0  0  0  0  0  0  0  0  0  0  0  0
    2.0750   51.6274   23.4578 O   0  0  0  0  0  0  0  0  0  0  0  0
    4.0415   61.1647   23.7843 O   0  0  0  0  0  0  0  0  0  0  0  0
    5.5956   57.2957   23.2450 C   0  0  0  0  0  0  0  0  0  0  0  0
    0.6206   52.9927   24.8242 C   0  0  0  0  0  0  0  0  0  0  0  0
    2.3944   55.3122   21.1011 C   0  0  0  0  0  0  0  0  0  0  0  0
    5.0794   57.3752   20.8851 C   0  0  0  0  0  0  0  0  0  0  0  0
    5.0797   56.7378   19.5159 C   0  0  0  0  0  0  0  0  0  0  0  0
  1  8  1  0
  1 11  1  0
  1 20  1  0
  2 12  1  0
  2 16  1  0
  2 19  1  0
  3 10  4  0
  3 21  4  0
  4 18  4  0
  4 21  4  0
  5  9  1  0
  5 10  1  0
  5 17  1  0
  6 12  1  0
  6 13  1  0
  6 20  1  0
  7 10  4  0
  7 18  4  0
  8 13  1  0
 11 14  1  0
 11 22  1  0
 15 19  1  0
 21 22  1  0
M  END
$$$$

     RDKit          3D

 23 24  0  0  0  0  0  0  0  0999 V2000
    3.4792   55.5920   20.6735 C   0  0  0  0  0  0  0  0  0  0  0  0
    4.9578   58.4924   23.9221 C   0  0  0  0  0  0  0  0  0  0  0  0
    1.2951   51.8935   22.9142 C   0  0  0  0  0  0  0  0  0  0  0  0
    5.8810   59.9438   22.2465 C   0  0  0  0  0  0  0  0  0  0  0  0
    6.8059   60.8535   21.9041 F   0  0  0  0  0  0  0  0  0  0  0  0
    2.4808   53.7093   21.8727 C   0  0  0  0  0  0  0  0  0  0  0  0
    3.9500   58.5921   21.6975 C   0  0  0  0  0  0  0  0  0  0  0  0
    1.4506   52.0692   24.4286 C   0  0  0  0  0  0  0  0  0  0  0  0
    4.7498   55.0754   20.9524 C   0  0  0  0  0  0  0  0  0  0  0  0
    2.3528   54.8975   21.1454 C   0  0  0  0  0  0  0  0  0  0  0  0
    2.8773   58.0777   20.7579 C   0  0  0  0  0  0  0  0  0  0  0  0
    4.8852   53.8940   21.6809 C   0  0  0  0  0  0  0  0  0  0  0  0
    0.0419   51.2698   22.6412 O   0  0  0  0  0  0  0  0  0  0  0  0
    4.9537   60.1724   19.9342 C   0  0  0  0  0  0  0  0  0  0  0  0
    1.2925   53.1594   22.2626 O   0  0  0  0  0  0  0  0  0  0  0  0
    3.9870   58.0788   23.0094 C   0  0  0  0  0  0  0  0  0  0  0  0
    2.3851   56.6980   18.8378 O   0  0  0  0  0  0  0  0  0  0  0  0
    1.4814   50.7395   25.1668 C   0  0  0  0  0  0  0  0  0  0  0  0
    5.9082   59.4300   23.5383 C   0  0  0  0  0  0  0  0  0  0  0  0
    3.3316   56.8851   19.8965 C   0  0  0  0  0  0  0  0  0  0  0  0
    4.9204   59.5395   21.3054 C   0  0  0  0  0  0  0  0  0  0  0  0
    4.1719   61.4775   19.8921 C   0  0  0  0  0  0  0  0  0  0  0  0
    3.7550   53.2121   22.1402 C   0  0  0  0  0  0  0  0  0  0  0  0
  1  9  4  0
  1 10  4  0
  1 20  1  0
  2 16  4  0
  2 19  4  0
  3  8  1  0
  3 13  1  0
  3 15  1  0
  4  5  1  0
  4 19  4  0
  4 21  4  0
  6 10  4  0
  6 15  1  0
  6 23  4  0
  7 11  1  0
  7 16  4  0
  7 21  4  0
  8 18  1  0
  9 12  4  0
 11 20  1  0
 12 23  4  0
 14 21  1  0
 14 22  1  0
 17 20  1  0
M  END
$$$$

     RDKit          3D

 18 18  0  0  0  0  0  0  0  0999 V2000
    4.4227   57.6783   21.5700 C   0  0  0  0  0  0  0  0  0  0  0  0
    3.9706   60.1666   22.0641 C   0  0  0  0  0  0  0  0  0  0  0  0
    3.6391   56.1302   24.2004 C   0  0  0  0  0  0  0  0  0  0  0  0
    7.1902   61.9455   21.1999 O   0  0  0  0  0  0  0  0  0  0  0  0
    2.7598   53.1976   21.7141 C   0  0  0  0  0  0  0  0  0  0  0  0
    5.3357   60.2427   20.0807 O   0  0  0  0  0  0  0  0  0  0  0  0
    5.9161   61.7683   21.8262 C   0  0  0  0  0  0  0  0  0  0  0  0
    1.6324   55.9301   22.7264 C   0  0  0  0  0  0  0  0  0  0  0  0
    3.9369   56.2038   21.6432 C   0  0  0  0  0  0  0  0  0  0  0  0
    5.6543   57.9603   22.4410 C   0  0  0  0  0  0  0  0  0  0  0  0
    2.3915   58.8422   20.5789 C   0  0  0  0  0  0  0  0  0  0  0  0
    2.5883   51.8168   22.1934 N   0  0  0  0  0  0  0  0  0  0  0  0
    3.3521   58.7756   21.7715 C   0  0  0  0  0  0  0  0  0  0  0  0
    5.3890   60.3529   21.5128 C   0  0  0  0  0  0  0  0  0  0  0  0
    3.6899   53.1308   20.5036 C   0  0  0  0  0  0  0  0  0  0  0  0
    3.1376   55.6084   22.8403 C   0  0  0  0  0  0  0  0  0  0  0  0
    3.3087   54.0442   22.8859 C   0  0  0  0  0  0  0  0  0  0  0  0
    6.3514   59.2707   22.0452 C   0  0  0  0  0  0  0  0  0  0  0  0
  1  9  1  0
  1 10  1  0
  1 13  1  0
  2 13  1  0
  2 14  1  0
  3 16  1  0
  4  7  1  0
  5 12  1  0
  5 15  1  0
  5 17  1  0
  6 14  1  0
  7 14  1  0
  8 16  1  0
  9 16  1  0
 10 18  1  0
 11 13  1  0
 14 18  1  0
 16 17  1  0
M  END
$$$$

     RDKit          3D

 20 20  0  0  0  0  0  0  0  0999 V2000
    1.5157   52.7988   22.4486 C   0  0  0  0  0  0  0  0  0  0  0  0
    3.6253   54.2502   22.6417 N   0  0  0  0  0  0  0  0  0  0  0  0
    5.5843   61.2374   22.0968 S   0  0  0  0  0  4  0  0  0  0  0  0
    5.7965   59.8074   21.0490 C   0  0  0  0  0  0  0  0  0  0  0  0
    4.5580   57.9937   22.3795 C   0  0  0  0  0  0  0  0  0  0  0  0
    0.1471   52.8817   22.8181 O   0  0  0  0  0  0  0  0  0  0  0  0
    4.2166   56.4119   20.5486 C   0  0  0  0  0  0  0  0  0  0  0  0
    5.0001   57.6377   20.0732 C   0  0  0  0  0  0  0  0  0  0  0  0
    2.0301   51.6894   23.2472 N   0  0  0  0  0  0  0  0  0  0  0  0
    2.1618   54.1817   22.8172 C   0  0  0  0  0  0  0  0  0  0  0  0
    4.5479   62.2342   21.3991 O   0  0  0  0  0  0  0  0  0  0  0  0
    7.0121   61.9460   22.2245 O   0  0  0  0  0  0  0  0  0  0  0  0
    3.3113   59.4161   20.6753 C   0  0  0  0  0  0  0  0  0  0  0  0
    3.1149   50.9197   22.6622 C   0  0  0  0  0  0  0  0  0  0  0  0
    5.0053   55.2484   20.3548 O   0  0  0  0  0  0  0  0  0  0  0  0
    3.8463   56.6775   22.0222 C   0  0  0  0  0  0  0  0  0  0  0  0
    5.0636   60.7902   23.5387 O   0  0  0  0  0  0  0  0  0  0  0  0
    1.5424   52.5785   20.9304 C   0  0  0  0  0  0  0  0  0  0  0  0
    4.6567   58.7748   21.0576 C   0  0  0  0  0  0  0  0  0  0  0  0
    4.1721   55.5622   23.0233 C   0  0  0  0  0  0  0  0  0  0  0  0
  1  6  1  0
  1  9  1  0
  1 10  1  0
  1 18  1  0
  2 10  1  0
  2 20  1  0
  3  4  1  0
  3 11  1  0
  3 12  1  0
  3 17  1  0
  4 19  1  0
  5 16  1  0
  5 19  1  0
  7  8  1  0
  7 15  1  0
  7 16  1  0
  8 19  1  0
  9 14  1  0
 13 19  1  0
 16 20  1  0
M  END
$$$$
