
     RDKit          3D

 28 30  0  0  0  0  0  0  0  0999 V2000
   -8.6596   32.3595    3.4453 O   0  0  0  0  0  0  0  0  0  0  0  0
   -6.7030   34.9324    0.4590 C   0  0  0  0  0  0  0  0  0  0  0  0
   -2.3471   33.1489    9.5246 N   0  0  0  0  0  0  0  0  0  0  0  0
   -9.5396   32.9490   -0.5786 C   0  0  0  0  0  0  0  0  0  0  0  0
   -8.6661   33.8054    1.4894 C   0  0  0  0  0  0  0  0  0  0  0  0
   -5.0388   33.9030    7.0599 C   0  0  0  0  0  0  0  0  0  0  0  0
   -4.3094   34.2274   -0.2109 C   0  0  0  0  0  0  0  0  0  0  0  0
   -3.2140   32.6844    8.4253 C   0  0  0  0  0  0  0  0  0  0  0  0
   -8.0406   33.1899   -0.7584 C   0  0  0  0  0  0  0  0  0  0  0  0
   -5.6155   34.9604   -0.6073 C   0  0  0  0  0  0  0  0  0  0  0  0
   -7.1869   34.1512    3.4195 N   0  0  0  0  0  0  0  0  0  0  0  0
   -2.3360   34.5963    9.3218 C   0  0  0  0  0  0  0  0  0  0  0  0
   -8.1573   33.3294    2.8790 C   0  0  0  0  0  0  0  0  0  0  0  0
   -3.6927   34.8357    1.0604 C   0  0  0  0  0  0  0  0  0  0  0  0
   -6.7118   32.9752    5.5454 C   0  0  0  0  0  0  0  0  0  0  0  0
   -4.2627   33.8037    8.3523 C   0  0  0  0  0  0  0  0  0  0  0  0
   -3.3010   34.3929   -1.3653 C   0  0  0  0  0  0  0  0  0  0  0  0
  -10.2747   34.0849   -1.0293 O   0  0  0  0  0  0  0  0  0  0  0  0
   -7.6256   33.9081    0.4462 N   0  0  0  0  0  0  0  0  0  0  0  0
   -5.5691   35.0069    4.9599 C   0  0  0  0  0  0  0  0  0  0  0  0
   -5.9854   32.9180    6.7412 C   0  0  0  0  0  0  0  0  0  0  0  0
   -9.6833   32.7996    0.9229 C   0  0  0  0  0  0  0  0  0  0  0  0
   -4.8422   34.9508    6.1533 C   0  0  0  0  0  0  0  0  0  0  0  0
   -3.5355   35.0039    8.6671 O   0  0  0  0  0  0  0  0  0  0  0  0
   -4.5473   32.7259    0.0131 C   0  0  0  0  0  0  0  0  0  0  0  0
   -6.6939   35.7660    1.3703 O   0  0  0  0  0  0  0  0  0  0  0  0
   -2.3745   32.4831    7.1606 C   0  0  0  0  0  0  0  0  0  0  0  0
   -6.5092   34.0196    4.6454 C   0  0  0  0  0  0  0  0  0  0  0  0
  1 13  2  0
  2 10  1  0
  2 19  1  0
  2 26  2  0
  3  8  1  0
  3 12  1  0
  4  9  1  0
  4 18  1  0
  4 22  1  0
  5 13  1  0
  5 19  1  0
  5 22  1  0
  6 16  1  0
  6 21  4  0
  6 23  4  0
  7 10  1  0
  7 14  1  0
  7 17  1  0
  7 25  1  0
  8 16  1  0
  8 27  1  0
  9 19  1  0
 11 13  1  0
 11 28  1  0
 12 24  1  0
 15 21  4  0
 15 28  4  0
 16 24  1  0
 20 23  4  0
 20 28  4  0
M  END
$$$$

     RDKit          3D

 28 30  0  0  0  0  0  0  0  0999 V2000
   -6.5289   35.1532   -0.2607 C   0  0  0  0  0  0  0  0  0  0  0  0
   -4.8990   33.7770    4.9213 C   0  0  0  0  0  0  0  0  0  0  0  0
   -6.1115   33.5320    1.5930 C   0  0  0  0  0  0  0  0  0  0  0  0
   -5.0412   34.3377   10.1450 C   0  0  0  0  0  0  0  0  0  0  0  0
   -8.0651   33.2138    0.2409 C   0  0  0  0  0  0  0  0  0  0  0  0
   -6.3934   33.8068    6.8497 C   0  0  0  0  0  0  0  0  0  0  0  0
   -3.8985   32.4834   11.0228 C   0  0  0  0  0  0  0  0  0  0  0  0
   -6.7406   35.2562   -2.8418 C   0  0  0  0  0  0  0  0  0  0  0  0
   -7.8876   31.9967    1.1443 C   0  0  0  0  0  0  0  0  0  0  0  0
   -7.3893   35.5347   -1.4622 C   0  0  0  0  0  0  0  0  0  0  0  0
   -5.4903   34.5499    2.5993 C   0  0  0  0  0  0  0  0  0  0  0  0
   -5.3661   33.4106    7.7175 C   0  0  0  0  0  0  0  0  0  0  0  0
   -4.6112   33.8439    3.5575 N   0  0  0  0  0  0  0  0  0  0  0  0
   -7.0743   32.5640    2.2978 C   0  0  0  0  0  0  0  0  0  0  0  0
   -5.4601   36.0867   -3.0389 C   0  0  0  0  0  0  0  0  0  0  0  0
   -4.1044   33.1763    7.1594 C   0  0  0  0  0  0  0  0  0  0  0  0
   -5.0723   32.7462    1.0038 O   0  0  0  0  0  0  0  0  0  0  0  0
   -3.7156   33.8697   10.6040 N   0  0  0  0  0  0  0  0  0  0  0  0
   -7.7495   35.6639   -3.9342 C   0  0  0  0  0  0  0  0  0  0  0  0
   -4.9349   35.7420    9.5557 C   0  0  0  0  0  0  0  0  0  0  0  0
   -9.1331   31.4911    1.5982 O   0  0  0  0  0  0  0  0  0  0  0  0
   -6.1643   33.9715    5.4756 C   0  0  0  0  0  0  0  0  0  0  0  0
   -6.9090   34.0662    0.4934 N   0  0  0  0  0  0  0  0  0  0  0  0
   -6.4055   33.7672   -3.0204 C   0  0  0  0  0  0  0  0  0  0  0  0
   -5.6619   33.2764    9.2000 C   0  0  0  0  0  0  0  0  0  0  0  0
   -3.8846   33.3443    5.7861 C   0  0  0  0  0  0  0  0  0  0  0  0
   -5.0663   31.6972    9.8949 S   0  0  0  0  0  0  0  0  0  0  0  0
   -5.5432   35.8373    0.0164 O   0  0  0  0  0  0  0  0  0  0  0  0
  1 10  1  0
  1 23  1  0
  1 28  2  0
  2 13  1  0
  2 22  4  0
  2 26  4  0
  3 11  1  0
  3 14  1  0
  3 17  1  0
  3 23  1  0
  4 18  1  0
  4 20  1  0
  4 25  1  0
  5  9  1  0
  5 23  1  0
  6 12  4  0
  6 22  4  0
  7 18  1  0
  7 27  1  0
  8 10  1  0
  8 15  1  0
  8 19  1  0
  8 24  1  0
  9 14  1  0
  9 21  1  0
 11 13  1  0
 12 16  4  0
 12 25  1  0
 16 26  4  0
 25 27  1  0
M  END
$$$$

     RDKit          3D

 28 29  0  0  0  0  0  0  0  0999 V2000
   -7.3307   34.9218    0.4811 C   0  0  0  0  0  0  0  0  0  0  0  0
   -6.1271   32.3545    2.0650 C   0  0  0  0  0  0  0  0  0  0  0  0
   -5.7192   35.0584   11.5427 C   0  0  0  0  0  0  0  0  0  0  0  0
   -4.1312   34.4997    9.6512 C   0  0  0  0  0  0  0  0  0  0  0  0
   -9.0839   31.8205   -0.1517 C   0  0  1  0  0  0  0  0  0  0  0  0
   -4.8254   34.0639    7.2831 C   0  0  0  0  0  0  0  0  0  0  0  0
   -7.3117   35.8142   -0.7537 C   0  0  0  0  0  0  0  0  0  0  0  0
   -5.0725   34.2849    8.7100 C   0  0  0  0  0  0  0  0  0  0  0  0
   -8.3077   32.9783   -0.7801 C   0  0  0  0  0  0  0  0  0  0  0  0
   -5.3655   33.4639    2.3438 N   0  0  0  0  0  0  0  0  0  0  0  0
   -5.9091   36.0082   -1.3829 C   0  0  1  0  0  0  0  0  0  0  0  0
   -4.3514   33.6292    4.5455 C   0  0  0  0  0  0  0  0  0  0  0  0
   -6.0522   36.9725   -2.5774 C   0  0  0  0  0  0  0  0  0  0  0  0
   -4.9266   36.6297   -0.3752 C   0  0  0  0  0  0  0  0  0  0  0  0
   -7.5504   33.5698    0.3218 N   0  0  0  0  0  0  0  0  0  0  0  0
   -4.3662   34.9306    5.0666 C   0  0  0  0  0  0  0  0  0  0  0  0
   -8.1652   31.3543    0.9604 C   0  0  0  0  0  0  0  0  0  0  0  0
  -10.3130   32.2957    0.3937 O   0  0  0  0  0  0  0  0  0  0  0  0
   -2.6504   34.5057    9.3289 C   0  0  0  0  0  0  0  0  0  0  0  0
   -4.8272   32.7654    6.7670 C   0  0  0  0  0  0  0  0  0  0  0  0
   -4.1254   33.3944    3.0745 C   0  0  0  0  0  0  0  0  0  0  0  0
   -5.7631   31.2154    2.3571 O   0  0  0  0  0  0  0  0  0  0  0  0
   -5.3309   34.6811   -1.8984 C   0  0  0  0  0  0  0  0  0  0  0  0
   -7.0606   35.4008    1.5868 O   0  0  0  0  0  0  0  0  0  0  0  0
   -4.5977   35.1460    6.4276 C   0  0  0  0  0  0  0  0  0  0  0  0
   -7.5308   32.6548    1.4795 C   0  0  1  0  0  0  0  0  0  0  0  0
   -4.4245   34.7128   10.9945 N   0  0  0  0  0  0  0  0  0  0  0  0
   -4.5957   32.5500    5.4063 C   0  0  0  0  0  0  0  0  0  0  0  0
  1  7  1  0
  1 15  1  0
  1 24  2  0
  2 10  1  0
  2 22  2  0
 26  2  1  6
  3 27  1  0
  4  8  2  3
  4 19  1  0
  4 27  1  0
  5  9  1  0
  5 17  1  0
  5 18  1  1
  6  8  1  0
  6 20  4  0
  6 25  4  0
  7 11  1  0
  9 15  1  0
 10 21  1  0
 11 13  1  6
 11 14  1  0
 11 23  1  0
 12 16  4  0
 12 21  1  0
 12 28  4  0
 15 26  1  0
 16 25  4  0
 17 26  1  0
 20 28  4  0
M  END
$$$$

     RDKit          3D

 29 31  0  0  0  0  0  0  0  0999 V2000
   -5.3939   32.9302   11.0349 C   0  0  0  0  0  0  0  0  0  0  0  0
   -7.4194   34.8009   -0.6265 C   0  0  0  0  0  0  0  0  0  0  0  0
   -5.1249   34.2016    1.8316 O   0  0  0  0  0  0  0  0  0  0  0  0
   -4.8710   33.2841    7.7041 C   0  0  0  0  0  0  0  0  0  0  0  0
   -3.4707   32.8100    9.8503 C   0  0  0  0  0  0  0  0  0  0  0  0
   -7.5694   32.2922   -0.2473 C   0  0  0  0  0  0  0  0  0  0  0  0
   -7.6866   32.3881    2.1474 C   0  0  0  0  0  0  0  0  0  0  0  0
   -5.7472   34.8141   -2.6005 C   0  0  0  0  0  0  0  0  0  0  0  0
   -5.7994   32.4206    9.7676 O   0  0  0  0  0  0  0  0  0  0  0  0
   -4.6305   32.4095    8.9198 C   0  0  0  0  0  0  0  0  0  0  0  0
   -5.2370   34.9026    5.4137 C   0  0  0  0  0  0  0  0  0  0  0  0
   -9.6464   31.7675    0.8893 O   0  0  0  0  0  0  0  0  0  0  0  0
   -7.2115   34.6447   -2.1262 C   0  0  0  0  0  0  0  0  0  0  0  0
   -6.5142   35.1768    3.3760 N   0  0  0  0  0  0  0  0  0  0  0  0
   -7.3922   33.6774    0.1653 N   0  0  0  0  0  0  0  0  0  0  0  0
   -5.1778   36.1794   -2.1787 C   0  0  0  0  0  0  0  0  0  0  0  0
   -5.8551   35.2338    6.6249 C   0  0  0  0  0  0  0  0  0  0  0  0
   -5.7333   34.7374   -4.1404 C   0  0  0  0  0  0  0  0  0  0  0  0
   -7.5231   33.8168    1.6120 C   0  0  0  0  0  0  0  0  0  0  0  0
   -8.2290   31.6148    0.9561 C   0  0  0  0  0  0  0  0  0  0  0  0
   -2.2842   33.5199    9.2166 C   0  0  0  0  0  0  0  0  0  0  0  0
   -5.6710   34.4350    7.7572 C   0  0  0  0  0  0  0  0  0  0  0  0
   -4.4462   33.7485    5.3517 C   0  0  0  0  0  0  0  0  0  0  0  0
   -4.8427   33.6995   -2.0539 C   0  0  0  0  0  0  0  0  0  0  0  0
   -4.2634   32.9506    6.4834 C   0  0  0  0  0  0  0  0  0  0  0  0
   -4.1238   33.6273   10.8866 N   0  0  0  0  0  0  0  0  0  0  0  0
   -7.5697   35.9233   -0.1360 O   0  0  0  0  0  0  0  0  0  0  0  0
   -5.4549   35.7381    4.1793 C   0  0  0  0  0  0  0  0  0  0  0  0
   -6.2606   34.4324    2.2435 C   0  0  0  0  0  0  0  0  0  0  0  0
  1  9  1  0
  1 26  1  0
  2 13  1  0
  2 15  1  0
  2 27  2  0
  3 29  2  0
  4 10  1  0
  4 22  4  0
  4 25  4  0
  5 10  1  0
  5 21  1  0
  5 26  1  0
  6 15  1  0
  6 20  1  0
  7 19  1  0
  7 20  1  0
  8 13  1  0
  8 16  1  0
  8 18  1  0
  8 24  1  0
  9 10  1  0
 11 17  4  0
 11 23  4  0
 11 28  1  0
 12 20  1  0
 14 28  1  0
 14 29  1  0
 15 19  1  0
 17 22  4  0
 19 29  1  0
 23 25  4  0
M  END
$$$$

     RDKit          3D

 27 28  0  0  0  0  0  0  0  0999 V2000
   -4.1145   33.6961    1.3009 O   0  0  0  0  0  0  0  0  0  0  0  0
   -5.1703   33.6119    7.0828 C   0  0  0  0  0  0  0  0  0  0  0  0
   -5.9753   32.0630   11.1949 C   0  0  0  0  0  0  0  0  0  0  0  0
   -4.8578   34.6508    4.4911 C   0  0  0  0  0  0  0  0  0  0  0  0
   -6.0651   34.5688    6.5958 C   0  0  0  0  0  0  0  0  0  0  0  0
   -4.7934   33.5935    9.5581 C   0  0  0  0  0  0  0  0  0  0  0  0
   -6.4478   33.6262    1.9678 C   0  0  1  0  0  0  0  0  0  0  0  0
   -7.1034   35.1379   -3.9065 C   0  0  0  0  0  0  0  0  0  0  0  0
   -5.3298   33.0740    8.4354 C   0  0  0  0  0  0  0  0  0  0  0  0
   -7.6087   34.9009   -1.4693 C   0  0  0  0  0  0  0  0  0  0  0  0
   -7.4111   32.3551    0.1657 C   0  0  0  0  0  0  0  0  0  0  0  0
   -5.6523   36.3293   -2.2603 C   0  0  0  0  0  0  0  0  0  0  0  0
   -8.8613   31.8041    2.0279 O   0  0  0  0  0  0  0  0  0  0  0  0
   -3.9609   33.6936    4.9860 C   0  0  0  0  0  0  0  0  0  0  0  0
   -6.9288   33.6642    0.5883 N   0  0  0  0  0  0  0  0  0  0  0  0
   -5.5216   33.8369   -2.4806 C   0  0  0  0  0  0  0  0  0  0  0  0
   -6.5007   32.1497    2.3752 C   0  0  0  0  0  0  0  0  0  0  0  0
   -7.5707   31.5652    1.4669 C   0  0  2  0  0  0  0  0  0  0  0  0
   -5.9100   35.0859    5.3075 C   0  0  0  0  0  0  0  0  0  0  0  0
   -6.9382   35.9334    0.5847 O   0  0  0  0  0  0  0  0  0  0  0  0
   -6.4669   35.0476   -2.5051 C   0  0  2  0  0  0  0  0  0  0  0  0
   -3.9222   34.8338    9.5422 C   0  0  0  0  0  0  0  0  0  0  0  0
   -4.1171   33.1770    6.2739 C   0  0  0  0  0  0  0  0  0  0  0  0
   -4.9740   33.0393   10.8212 N   0  0  0  0  0  0  0  0  0  0  0  0
   -4.7020   35.1842    3.0893 C   0  0  0  0  0  0  0  0  0  0  0  0
   -5.0018   34.1314    2.0424 C   0  0  0  0  0  0  0  0  0  0  0  0
   -7.1519   34.8776   -0.0181 C   0  0  0  0  0  0  0  0  0  0  0  0
  1 26  2  0
  2  5  4  0
  2  9  1  0
  2 23  4  0
  3 24  1  0
  4 14  4  0
  4 19  4  0
  4 25  1  0
  5 19  4  0
  6  9  2  3
  6 22  1  0
  6 24  1  0
  7 15  1  0
  7 17  1  0
  7 26  1  6
 21  8  1  6
 10 21  1  0
 10 27  1  0
 11 15  1  0
 11 18  1  0
 12 21  1  0
 18 13  1  1
 14 23  4  0
 15 27  1  0
 16 21  1  0
 17 18  1  0
 20 27  2  0
 25 26  1  0
M  END
$$$$

     RDKit          3D

 29 31  0  0  0  0  0  0  0  0999 V2000
   -4.4690   33.3149    7.5469 C   0  0  0  0  0  0  0  0  0  0  0  0
   -3.6685   32.9919   10.0379 C   0  0  0  0  0  0  0  0  0  0  0  0
   -7.4664   34.7295   -0.6041 C   0  0  0  0  0  0  0  0  0  0  0  0
   -6.1794   34.5791    2.2398 C   0  0  0  0  0  0  0  0  0  0  0  0
   -7.4635   32.2419   -0.0844 C   0  0  0  0  0  0  0  0  0  0  0  0
   -5.8709   34.7176   -2.6412 C   0  0  0  0  0  0  0  0  0  0  0  0
   -4.1485   32.3796    8.6979 C   0  0  0  0  0  0  0  0  0  0  0  0
   -5.7528   32.2182   10.8120 C   0  0  0  0  0  0  0  0  0  0  0  0
   -5.6110   35.2500    6.5986 C   0  0  0  0  0  0  0  0  0  0  0  0
   -7.3054   34.5005   -2.1003 C   0  0  0  0  0  0  0  0  0  0  0  0
   -4.1710   33.9141    5.2031 C   0  0  0  0  0  0  0  0  0  0  0  0
   -5.3504   35.8849    4.1653 C   0  0  0  0  0  0  0  0  0  0  0  0
   -9.4666   31.6741    1.1595 O   0  0  0  0  0  0  0  0  0  0  0  0
   -7.3463   33.6553    0.2455 N   0  0  0  0  0  0  0  0  0  0  0  0
   -7.4983   32.4647    2.3042 C   0  0  0  0  0  0  0  0  0  0  0  0
   -5.0571   34.4383    1.7571 O   0  0  0  0  0  0  0  0  0  0  0  0
   -5.9111   34.5610   -4.1746 C   0  0  0  0  0  0  0  0  0  0  0  0
   -5.3353   34.4109    7.6822 C   0  0  0  0  0  0  0  0  0  0  0  0
   -5.3576   36.1299   -2.3121 C   0  0  0  0  0  0  0  0  0  0  0  0
   -6.4186   35.2951    3.3945 N   0  0  0  0  0  0  0  0  0  0  0  0
   -8.0415   31.5994    1.1785 C   0  0  0  0  0  0  0  0  0  0  0  0
   -2.7123   34.1721    9.8975 C   0  0  0  0  0  0  0  0  0  0  0  0
   -5.0251   35.0135    5.3503 C   0  0  0  0  0  0  0  0  0  0  0  0
   -4.8898   33.6796   -2.0762 C   0  0  0  0  0  0  0  0  0  0  0  0
   -5.6202   31.4177    9.1973 S   0  0  0  0  0  0  0  0  0  0  0  0
   -4.8501   33.3627   10.8360 N   0  0  0  0  0  0  0  0  0  0  0  0
   -7.4288   33.8682    1.6869 C   0  0  0  0  0  0  0  0  0  0  0  0
   -7.6630   35.8679   -0.1706 O   0  0  0  0  0  0  0  0  0  0  0  0
   -3.8961   33.0766    6.2872 C   0  0  0  0  0  0  0  0  0  0  0  0
  1  7  1  0
  1 18  4  0
  1 29  4  0
  2  7  1  0
  2 22  1  0
  2 26  1  0
  3 10  1  0
  3 14  1  0
  3 28  2  0
  4 16  2  0
  4 20  1  0
  4 27  1  0
  5 14  1  0
  5 21  1  0
  6 10  1  0
  6 17  1  0
  6 19  1  0
  6 24  1  0
  7 25  1  0
  8 25  1  0
  8 26  1  0
  9 18  4  0
  9 23  4  0
 11 23  4  0
 11 29  4  0
 12 20  1  0
 12 23  1  0
 13 21  1  0
 14 27  1  0
 15 21  1  0
 15 27  1  0
M  END
$$$$

     RDKit          3D

 29 31  0  0  0  0  0  0  0  0999 V2000
   -3.4872   32.9867    9.5819 C   0  0  0  0  0  0  0  0  0  0  0  0
   -7.3353   34.6511   -0.7023 C   0  0  0  0  0  0  0  0  0  0  0  0
   -5.0585   33.9639    7.7836 C   0  0  0  0  0  0  0  0  0  0  0  0
   -5.1237   34.3975    1.8610 O   0  0  0  0  0  0  0  0  0  0  0  0
   -8.2774   31.7544    1.3054 C   0  0  0  0  0  0  0  0  0  0  0  0
   -5.6119   34.3302   -2.6054 C   0  0  0  0  0  0  0  0  0  0  0  0
   -7.5670   32.2304    0.0363 C   0  0  0  0  0  0  0  0  0  0  0  0
   -4.3254   30.8333   10.0417 C   0  0  0  0  0  0  0  0  0  0  0  0
   -7.7441   32.6809    2.3862 C   0  0  0  0  0  0  0  0  0  0  0  0
   -4.9355   33.2247    9.0987 C   0  0  0  0  0  0  0  0  0  0  0  0
   -5.3060   35.4058    5.3615 C   0  0  0  0  0  0  0  0  0  0  0  0
   -7.0925   34.2702   -2.1558 C   0  0  0  0  0  0  0  0  0  0  0  0
   -5.8073   35.1498    7.7236 C   0  0  0  0  0  0  0  0  0  0  0  0
   -6.5236   35.5400    3.2760 N   0  0  0  0  0  0  0  0  0  0  0  0
   -4.4419   33.5072    6.6085 C   0  0  0  0  0  0  0  0  0  0  0  0
   -5.0123   35.7268   -2.3683 C   0  0  0  0  0  0  0  0  0  0  0  0
   -5.5604   34.0302   -4.1169 C   0  0  0  0  0  0  0  0  0  0  0  0
   -7.3599   33.6564    0.2464 N   0  0  0  0  0  0  0  0  0  0  0  0
   -9.6876   31.9309    1.1745 O   0  0  0  0  0  0  0  0  0  0  0  0
   -7.5237   34.0107    1.6525 C   0  0  0  0  0  0  0  0  0  0  0  0
   -5.4685   36.1408    4.0563 C   0  0  0  0  0  0  0  0  0  0  0  0
   -4.7563   33.2832   -1.8766 C   0  0  0  0  0  0  0  0  0  0  0  0
   -2.8720   34.2453   10.1884 C   0  0  0  0  0  0  0  0  0  0  0  0
   -3.5459   31.9278   10.6063 N   0  0  0  0  0  0  0  0  0  0  0  0
   -5.6427   31.5472    9.0347 S   0  0  0  0  0  0  0  0  0  0  0  0
   -4.5655   34.2183    5.4126 C   0  0  0  0  0  0  0  0  0  0  0  0
   -5.9321   35.8616    6.5270 C   0  0  0  0  0  0  0  0  0  0  0  0
   -7.4679   35.8369   -0.3875 O   0  0  0  0  0  0  0  0  0  0  0  0
   -6.2625   34.6799    2.2297 C   0  0  0  0  0  0  0  0  0  0  0  0
  1 10  1  0
  1 23  1  0
  1 24  1  0
  2 12  1  0
  2 18  1  0
  2 28  2  0
  3 10  1  0
  3 13  4  0
  3 15  4  0
  4 29  2  0
  5  7  1  0
  5  9  1  0
  5 19  1  0
  6 12  1  0
  6 16  1  0
  6 17  1  0
  6 22  1  0
  7 18  1  0
  8 24  1  0
  8 25  1  0
  9 20  1  0
 10 25  1  0
 11 21  1  0
 11 26  4  0
 11 27  4  0
 13 27  4  0
 14 21  1  0
 14 29  1  0
 15 26  4  0
 18 20  1  0
 20 29  1  0
M  END
$$$$

     RDKit          3D

 28 30  0  0  0  0  0  0  0  0999 V2000
   -3.3333   33.4725    7.8631 C   0  0  0  0  0  0  0  0  0  0  0  0
   -3.0518   31.9827    9.5872 C   0  0  0  0  0  0  0  0  0  0  0  0
   -6.4399   35.7806    1.2735 O   0  0  0  0  0  0  0  0  0  0  0  0
   -8.5149   32.6106    3.6100 O   0  0  0  0  0  0  0  0  0  0  0  0
   -9.7612   33.1510    1.2122 C   0  0  0  0  0  0  0  0  0  0  0  0
   -4.2572   33.6153    6.6752 C   0  0  0  0  0  0  0  0  0  0  0  0
   -6.0096   33.9455    4.4798 C   0  0  0  0  0  0  0  0  0  0  0  0
   -3.9093   34.0479    9.1607 C   0  0  0  0  0  0  0  0  0  0  0  0
   -9.7933   33.3010   -0.2956 C   0  0  0  0  0  0  0  0  0  0  0  0
   -4.4576   34.0299   -0.6133 C   0  0  0  0  0  0  0  0  0  0  0  0
   -8.5806   34.0387    1.6433 C   0  0  0  0  0  0  0  0  0  0  0  0
   -8.3122   33.3865   -0.6643 C   0  0  0  0  0  0  0  0  0  0  0  0
   -6.2042   32.9071    5.3885 C   0  0  0  0  0  0  0  0  0  0  0  0
   -3.5987   34.1080   -1.8913 C   0  0  0  0  0  0  0  0  0  0  0  0
   -7.6757   34.0458    0.4757 N   0  0  0  0  0  0  0  0  0  0  0  0
   -3.6183   34.5513    0.5656 C   0  0  0  0  0  0  0  0  0  0  0  0
   -5.7206   34.9004   -0.8313 C   0  0  0  0  0  0  0  0  0  0  0  0
   -4.8197   32.5578   -0.3622 C   0  0  0  0  0  0  0  0  0  0  0  0
  -10.4566   34.5122   -0.6522 O   0  0  0  0  0  0  0  0  0  0  0  0
   -3.7195   35.5486    9.3083 C   0  0  0  0  0  0  0  0  0  0  0  0
   -4.0651   34.6561    5.7582 C   0  0  0  0  0  0  0  0  0  0  0  0
   -6.8251   34.1782    3.3572 N   0  0  0  0  0  0  0  0  0  0  0  0
   -3.0997   32.0831    8.1642 O   0  0  0  0  0  0  0  0  0  0  0  0
   -5.3373   32.7446    6.4761 C   0  0  0  0  0  0  0  0  0  0  0  0
   -4.9314   34.8167    4.6722 C   0  0  0  0  0  0  0  0  0  0  0  0
   -6.6562   34.9676    0.3691 C   0  0  0  0  0  0  0  0  0  0  0  0
   -3.1492   33.3110   10.1744 N   0  0  0  0  0  0  0  0  0  0  0  0
   -7.9597   33.4966    2.9615 C   0  0  0  0  0  0  0  0  0  0  0  0
  1  6  1  0
  1  8  1  0
  1 23  1  0
  2 23  1  0
  2 27  1  0
  3 26  2  0
  4 28  2  0
  5  9  1  0
  5 11  1  0
  6 21  4  0
  6 24  4  0
  7 13  4  0
  7 22  1  0
  7 25  4  0
  8 20  1  0
  8 27  1  0
  9 12  1  0
  9 19  1  0
 10 14  1  0
 10 16  1  0
 10 17  1  0
 10 18  1  0
 11 15  1  0
 11 28  1  0
 12 15  1  0
 13 24  4  0
 15 26  1  0
 17 26  1  0
 21 25  4  0
 22 28  1  0
M  END
$$$$

     RDKit          3D

 28 30  0  0  0  0  0  0  0  0999 V2000
   -2.4837   35.0320    8.9735 C   0  0  0  0  0  0  0  0  0  0  0  0
   -3.9047   34.9486    8.9139 O   0  0  0  0  0  0  0  0  0  0  0  0
   -6.6293   35.7340    1.4408 O   0  0  0  0  0  0  0  0  0  0  0  0
   -5.0152   33.7767    7.1077 C   0  0  0  0  0  0  0  0  0  0  0  0
   -6.4751   33.9383    4.6868 C   0  0  0  0  0  0  0  0  0  0  0  0
   -2.8841   32.9028    8.3244 C   0  0  0  0  0  0  0  0  0  0  0  0
   -8.6183   33.7872    1.5187 C   0  0  0  0  0  0  0  0  0  0  0  0
   -9.4966   32.9801   -0.5667 C   0  0  0  0  0  0  0  0  0  0  0  0
   -4.8127   34.8393    6.2182 C   0  0  0  0  0  0  0  0  0  0  0  0
   -7.9956   33.2127   -0.7406 C   0  0  0  0  0  0  0  0  0  0  0  0
   -5.5544   34.9568   -0.5500 C   0  0  0  0  0  0  0  0  0  0  0  0
   -4.2555   34.2054   -0.1644 C   0  0  0  0  0  0  0  0  0  0  0  0
   -7.5758   33.9025    0.4789 N   0  0  0  0  0  0  0  0  0  0  0  0
   -3.2427   34.3843   -1.3129 C   0  0  0  0  0  0  0  0  0  0  0  0
   -5.9644   32.8011    6.7665 C   0  0  0  0  0  0  0  0  0  0  0  0
   -3.6371   34.7838    1.1199 C   0  0  0  0  0  0  0  0  0  0  0  0
  -10.2222   34.1311   -0.9941 O   0  0  0  0  0  0  0  0  0  0  0  0
   -7.1470   34.0930    3.4605 N   0  0  0  0  0  0  0  0  0  0  0  0
   -9.6426   32.8009    0.9313 C   0  0  0  0  0  0  0  0  0  0  0  0
   -4.5069   32.7019    0.0301 C   0  0  0  0  0  0  0  0  0  0  0  0
   -2.7443   31.8124    7.2732 C   0  0  0  0  0  0  0  0  0  0  0  0
   -6.6850   32.8801    5.5683 C   0  0  0  0  0  0  0  0  0  0  0  0
   -1.9067   33.9884    8.1366 N   0  0  0  0  0  0  0  0  0  0  0  0
   -5.5347   34.9179    5.0228 C   0  0  0  0  0  0  0  0  0  0  0  0
   -4.2341   33.6399    8.4004 C   0  0  0  0  0  0  0  0  0  0  0  0
   -6.6443   34.9182    0.5136 C   0  0  0  0  0  0  0  0  0  0  0  0
   -8.1121   33.2795    2.8980 C   0  0  0  0  0  0  0  0  0  0  0  0
   -8.6085   32.2917    3.4375 O   0  0  0  0  0  0  0  0  0  0  0  0
  1  2  1  0
  1 23  1  0
  2 25  1  0
  3 26  2  0
  4  9  4  0
  4 15  4  0
  4 25  1  0
  5 18  1  0
  5 22  4  0
  5 24  4  0
  6 21  1  0
  6 23  1  0
  6 25  1  0
  7 13  1  0
  7 19  1  0
  7 27  1  0
  8 10  1  0
  8 17  1  0
  8 19  1  0
  9 24  4  0
 10 13  1  0
 11 12  1  0
 11 26  1  0
 12 14  1  0
 12 16  1  0
 12 20  1  0
 13 26  1  0
 15 22  4  0
 18 27  1  0
 27 28  2  0
M  END
$$$$

     RDKit          3D

 28 30  0  0  0  0  0  0  0  0999 V2000
   -4.5483   33.4448    7.3145 C   0  0  0  0  0  0  0  0  0  0  0  0
   -5.8376   34.0367   10.8430 N   0  0  0  0  0  0  0  0  0  0  0  0
   -6.7816   35.9037    1.0535 O   0  0  0  0  0  0  0  0  0  0  0  0
   -5.4628   34.4989    9.4869 C   0  0  0  0  0  0  0  0  0  0  0  0
   -6.4223   33.3440    1.9841 C   0  0  0  0  0  0  0  0  0  0  0  0
   -7.7620   32.5300    0.1461 C   0  0  0  0  0  0  0  0  0  0  0  0
   -6.7190   35.4670   -2.1862 C   0  0  0  0  0  0  0  0  0  0  0  0
   -3.2250   33.5975    5.2810 C   0  0  0  0  0  0  0  0  0  0  0  0
   -5.6082   33.4933    5.1103 C   0  0  0  0  0  0  0  0  0  0  0  0
   -4.2870   33.6668    0.8916 O   0  0  0  0  0  0  0  0  0  0  0  0
   -7.9095   31.5677    1.3249 C   0  0  0  0  0  0  0  0  0  0  0  0
   -7.7570   35.3115   -1.0480 C   0  0  0  0  0  0  0  0  0  0  0  0
   -6.6737   31.8402    2.1666 C   0  0  0  0  0  0  0  0  0  0  0  0
   -7.4675   35.9250   -3.4542 C   0  0  0  0  0  0  0  0  0  0  0  0
   -7.0441   33.6720    0.6940 N   0  0  0  0  0  0  0  0  0  0  0  0
   -5.6622   36.5290   -1.8379 C   0  0  0  0  0  0  0  0  0  0  0  0
   -9.0801   31.8842    2.0770 O   0  0  0  0  0  0  0  0  0  0  0  0
   -5.3707   31.8463    9.4370 S   0  0  0  0  0  0  0  0  0  0  0  0
   -4.3736   33.5751    4.4759 C   0  0  0  0  0  0  0  0  0  0  0  0
   -5.6950   33.4275    6.5101 C   0  0  0  0  0  0  0  0  0  0  0  0
   -4.6905   35.8130    9.5891 C   0  0  0  0  0  0  0  0  0  0  0  0
   -6.3769   32.6906   10.6724 C   0  0  0  0  0  0  0  0  0  0  0  0
   -4.6171   33.3862    8.8240 C   0  0  0  0  0  0  0  0  0  0  0  0
   -6.0161   34.1372   -2.4967 C   0  0  0  0  0  0  0  0  0  0  0  0
   -3.3070   33.5297    6.6766 C   0  0  0  0  0  0  0  0  0  0  0  0
   -4.1451   33.6433    3.0911 N   0  0  0  0  0  0  0  0  0  0  0  0
   -7.1686   34.9907    0.3191 C   0  0  0  0  0  0  0  0  0  0  0  0
   -4.9086   33.5976    1.9622 C   0  0  0  0  0  0  0  0  0  0  0  0
  1 20  4  0
  1 23  1  0
  1 25  4  0
  2  4  1  0
  2 22  1  0
  3 27  2  0
  4 21  1  0
  4 23  1  0
  5 13  1  0
  5 15  1  0
  5 28  1  0
  6 11  1  0
  6 15  1  0
  7 12  1  0
  7 14  1  0
  7 16  1  0
  7 24  1  0
  8 19  4  0
  8 25  4  0
  9 19  4  0
  9 20  4  0
 10 28  2  0
 11 13  1  0
 11 17  1  0
 12 27  1  0
 15 27  1  0
 18 22  1  0
 18 23  1  0
 19 26  1  0
 26 28  1  0
M  END
$$$$
