
     RDKit          3D

 22 23  0  0  0  0  0  0  0  0999 V2000
    5.4971   57.1168   23.1781 C   0  0  0  0  0  0  0  0  0  0  0  0
    5.1842   57.3269   20.8580 C   0  0  0  0  0  0  0  0  0  0  0  0
    2.1272   51.5590   23.3887 O   0  0  0  0  0  0  0  0  0  0  0  0
    1.7651   53.7052   22.6909 O   0  0  0  0  0  0  0  0  0  0  0  0
    4.0209   60.5613   22.5121 N   0  0  0  0  0  0  0  0  0  0  0  0
    2.8717   57.0885   18.9638 O   0  0  0  0  0  0  0  0  0  0  0  0
    4.6234   59.2430   22.3051 C   0  0  0  0  0  0  0  0  0  0  0  0
    2.4433   55.3331   21.1312 C   0  0  0  0  0  0  0  0  0  0  0  0
    0.9159   52.2146   25.9958 C   0  0  0  0  0  0  0  0  0  0  0  0
    2.0041   52.9456   23.8778 C   0  0  0  0  0  0  0  0  0  0  0  0
    3.8159   53.8052   20.1534 C   0  0  0  0  0  0  0  0  0  0  0  0
    3.9832   61.1101   23.8526 O   0  0  0  0  0  0  0  0  0  0  0  0
    5.0892   56.7610   19.5194 C   0  0  0  0  0  0  0  0  0  0  0  0
    5.3480   56.5443   21.9698 C   0  0  0  0  0  0  0  0  0  0  0  0
    4.4500   61.7020   21.4827 C   0  0  0  0  0  0  0  0  0  0  0  0
    3.1181   54.5039   22.0945 C   0  0  0  0  0  0  0  0  0  0  0  0
    0.6835   53.1696   24.8338 C   0  0  0  0  0  0  0  0  0  0  0  0
    3.7556   56.0657   19.0881 C   0  0  0  0  0  0  0  0  0  0  0  0
    2.7971   54.8374   19.7922 C   0  0  0  0  0  0  0  0  0  0  0  0
    3.3150   53.0258   21.2150 N   0  0  0  0  0  0  0  0  0  0  0  0
    4.8270   58.6172   21.0449 C   0  0  0  0  0  0  0  0  0  0  0  0
    5.0388   58.4519   23.3147 C   0  0  0  0  0  0  0  0  0  0  0  0
  1 14  2  0
  1 22  1  0
  2 13  1  0
  2 14  1  0
  2 21  2  0
  3 10  1  0
  4 10  1  0
  4 16  1  0
  5  7  1  0
  5 12  1  0
  5 15  1  0
  6 18  1  0
  7 21  1  0
  7 22  2  0
  8 16  1  0
  8 19  1  0
  9 17  1  0
 10 17  1  0
 11 19  1  0
 11 20  1  0
 13 18  1  0
 16 20  1  0
 18 19  1  0
M  END
$$$$

     RDKit          3D

 20 21  0  0  0  0  0  0  0  0999 V2000
    4.5553   59.2930   22.2908 C   0  0  0  0  0  0  0  0  0  0  0  0
    0.6914   52.8988   24.7399 C   0  0  0  0  0  0  0  0  0  0  0  0
    4.1254   61.1718   23.6793 O   0  0  0  0  0  0  0  0  0  0  0  0
    5.1852   57.6436   20.7658 C   0  0  0  0  0  0  0  0  0  0  0  0
    3.2822   54.9763   19.8999 C   0  0  0  0  0  0  0  0  0  0  0  0
    2.4288   55.1995   21.0335 C   0  0  0  0  0  0  0  0  0  0  0  0
    2.6782   54.0105   22.0250 C   0  0  0  0  0  0  0  0  0  0  0  0
    4.1778   60.6208   22.4140 C   0  0  0  0  0  0  0  0  0  0  0  0
    5.5063   57.3436   23.3983 C   0  0  0  0  0  0  0  0  0  0  0  0
    3.2844   52.9744   21.2227 C   0  0  0  0  0  0  0  0  0  0  0  0
    5.3177   56.8697   19.5053 C   0  0  0  0  0  0  0  0  0  0  0  0
    2.8779   57.1213   18.9432 O   0  0  0  0  0  0  0  0  0  0  0  0
    4.4564   61.6250   21.4183 C   0  0  0  0  0  0  0  0  0  0  0  0
    2.0574   51.3732   23.4793 O   0  0  0  0  0  0  0  0  0  0  0  0
    5.0239   58.6365   23.4271 C   0  0  0  0  0  0  0  0  0  0  0  0
    0.9353   52.0708   26.0028 C   0  0  0  0  0  0  0  0  0  0  0  0
    3.9730   53.7581   20.2018 C   0  0  0  0  0  0  0  0  0  0  0  0
    4.7443   58.7030   21.0358 C   0  0  0  0  0  0  0  0  0  0  0  0
    5.5305   56.8372   22.0786 C   0  0  0  0  0  0  0  0  0  0  0  0
    3.9831   56.1702   19.0751 C   0  0  0  0  0  0  0  0  0  0  0  0
  1  8  1  0
  1 15  2  0
  1 18  1  0
  2 14  1  0
  2 16  1  0
  3  8  1  0
  4 11  1  0
  4 18  2  0
  4 19  1  0
  5  6  1  0
  5 17  1  0
  5 20  1  0
  6  7  1  0
  7 10  1  0
  8 13  1  0
  9 15  1  0
  9 19  2  0
 10 14  1  0
 10 17  1  0
 11 20  1  0
 12 20  1  0
M  END
$$$$

     RDKit          3D

 21 22  0  0  0  0  0  0  0  0999 V2000
    4.7443   54.9152   21.1069 C   0  0  0  0  0  0  0  0  0  0  0  0
    3.5911   56.8438   20.0005 C   0  0  0  0  0  0  0  0  0  0  0  0
    2.7431   53.6529   21.7074 C   0  0  0  0  0  0  0  0  0  0  0  0
    1.4877   50.8202   24.9890 C   0  0  0  0  0  0  0  0  0  0  0  0
    3.9093   57.9132   22.9857 C   0  0  0  0  0  0  0  0  0  0  0  0
    5.0486   60.1906   20.1222 C   0  0  0  0  0  0  0  0  0  0  0  0
    6.8106   60.8639   21.8087 F   0  0  0  0  0  0  0  0  0  0  0  0
    4.2901   53.6505   21.7826 N   0  0  0  0  0  0  0  0  0  0  0  0
    2.4742   56.4286   18.9299 O   0  0  0  0  0  0  0  0  0  0  0  0
    2.5151   54.9382   21.1259 C   0  0  0  0  0  0  0  0  0  0  0  0
    0.0916   51.2591   22.5585 O   0  0  0  0  0  0  0  0  0  0  0  0
    4.9879   59.4871   21.3811 C   0  0  0  0  0  0  0  0  0  0  0  0
    5.6732   59.3255   23.6131 C   0  0  0  0  0  0  0  0  0  0  0  0
    4.0061   58.5058   21.7661 C   0  0  0  0  0  0  0  0  0  0  0  0
    4.2560   61.4584   20.1574 C   0  0  0  0  0  0  0  0  0  0  0  0
    1.3923   53.1973   22.2313 O   0  0  0  0  0  0  0  0  0  0  0  0
    1.4536   52.0473   24.3622 C   0  0  0  0  0  0  0  0  0  0  0  0
    3.1309   57.9693   20.8906 C   0  0  0  0  0  0  0  0  0  0  0  0
    3.6787   55.5561   20.6897 C   0  0  0  0  0  0  0  0  0  0  0  0
    5.8976   59.9540   22.2558 C   0  0  0  0  0  0  0  0  0  0  0  0
    4.9679   58.4370   23.8858 C   0  0  0  0  0  0  0  0  0  0  0  0
  1  8  1  0
  1 19  1  0
  2  9  1  0
  2 18  1  0
  2 19  1  0
  3  8  1  0
  3 10  1  0
  3 16  1  0
  4 17  1  0
  5 14  2  0
  5 21  1  0
  6 12  1  0
  6 15  1  0
  7 20  1  0
 10 19  1  0
 11 16  1  0
 11 17  1  0
 12 14  1  0
 12 20  2  0
 13 20  1  0
 13 21  2  0
 14 18  1  0
M  END
$$$$

     RDKit          3D

 23 24  0  0  0  0  0  0  0  0999 V2000
    2.2699   53.6852   21.8835 C   0  0  0  0  0  0  0  0  0  0  0  0
    6.8403   61.0719   21.6145 F   0  0  0  0  0  0  0  0  0  0  0  0
    4.9850   58.4792   23.7714 C   0  0  0  0  0  0  0  0  0  0  0  0
    3.9951   58.4224   21.6499 C   0  0  0  0  0  0  0  0  0  0  0  0
    3.3449   55.5293   20.6412 C   0  0  0  0  0  0  0  0  0  0  0  0
    1.1352   52.0654   22.9560 C   0  0  0  0  0  0  0  0  0  0  0  0
    4.9522   60.2445   20.0606 C   0  0  0  0  0  0  0  0  0  0  0  0
    2.3904   56.5268   18.7969 O   0  0  0  0  0  0  0  0  0  0  0  0
    5.9070   60.0994   22.0601 C   0  0  0  0  0  0  0  0  0  0  0  0
    3.5248   56.7142   19.6894 C   0  0  0  0  0  0  0  0  0  0  0  0
    3.5203   53.4185   22.0781 C   0  0  0  0  0  0  0  0  0  0  0  0
    3.9482   57.9151   22.9442 C   0  0  0  0  0  0  0  0  0  0  0  0
    1.5059   52.4210   24.4485 C   0  0  0  0  0  0  0  0  0  0  0  0
    5.9463   59.4303   23.2721 C   0  0  0  0  0  0  0  0  0  0  0  0
    1.4577   50.9404   25.1642 C   0  0  0  0  0  0  0  0  0  0  0  0
   -0.0020   51.4102   22.7169 O   0  0  0  0  0  0  0  0  0  0  0  0
    3.0842   57.9165   20.7312 C   0  0  0  0  0  0  0  0  0  0  0  0
    4.9027   59.5501   21.2685 C   0  0  0  0  0  0  0  0  0  0  0  0
    4.2960   61.4574   20.0246 C   0  0  0  0  0  0  0  0  0  0  0  0
    2.4473   54.8547   21.0931 C   0  0  0  0  0  0  0  0  0  0  0  0
    1.4869   53.2567   22.2473 O   0  0  0  0  0  0  0  0  0  0  0  0
    4.6256   55.0522   20.9463 C   0  0  0  0  0  0  0  0  0  0  0  0
    4.6950   53.9379   21.6174 C   0  0  0  0  0  0  0  0  0  0  0  0
  1 11  2  0
  1 20  1  0
  1 21  1  0
  2  9  1  0
  3 12  2  0
  3 14  1  0
  4 12  1  0
  4 17  1  0
  4 18  2  0
  5 10  1  0
  5 20  2  0
  5 22  1  0
  6 13  1  0
  6 16  1  0
  6 21  1  0
  7 18  1  0
  7 19  1  0
  8 10  1  0
  9 14  2  0
  9 18  1  0
 10 17  1  0
 11 23  1  0
 13 15  1  0
 22 23  2  0
M  END
$$$$
